@<TRIPOS>MOLECULE
CIW_221_3NF7
   35    38     0     0     0
SMALL
USER_CHARGES

@<TRIPOS>ATOM
      1 C1          7.3450  -29.2110   -9.3560 C.ar      1 <0>        -0.0416
      2 C2         11.0930  -26.7750   -9.2020 C.ar      1 <0>        -0.0538
      3 C3          8.2900  -28.3370   -9.8450 C.ar      1 <0>        -0.0386
      4 C4         12.2530  -27.2570   -8.6350 C.ar      1 <0>        -0.0287
      5 C5          5.9610  -27.4150   -8.5420 C.ar      1 <0>        -0.0380
      6 C6          6.8880  -25.0620   -8.9930 C.3       1 <0>         0.0514
      7 C7         15.2190  -28.0880  -10.4480 C.3       1 <0>         0.1601
      8 C8          9.7240  -26.0660  -11.1230 C.3       1 <0>         0.0455
      9 C9          6.2140  -28.7590   -8.7220 C.ar      1 <0>         0.0414
     10 C10        11.0130  -26.5570  -10.5780 C.ar      1 <0>        -0.0182
     11 C11         8.0220  -27.0070   -9.6490 C.ar      1 <0>         0.0403
     12 C12        13.3160  -27.4880   -9.4830 C.ar      1 <0>         0.1097
     13 C13         6.9010  -26.5350   -9.0230 C.ar      1 <0>        -0.0158
     14 C14        12.0860  -26.7930  -11.4270 C.ar      1 <0>         0.0346
     15 C15        13.2200  -27.2590  -10.8250 C.ar      1 <0>         0.1181
     16 C16         8.1970  -24.7470   -9.6650 C.2       1 <0>         0.2245
     17 C17        12.1100  -26.6030  -12.9200 C.2       1 <0>         0.0745
     18 N1          8.7950  -25.9440  -10.0450 N.am      1 <0>        -0.2665
     19 O1         11.4520  -27.3380  -13.6910 O.co2     1 <0>        -0.5445
     20 O2          8.6630  -23.6260   -9.7760 O.2       1 <0>        -0.2749
     21 O3         12.8590  -25.6980  -13.3460 O.co2     1 <0>        -0.5445
     22 O4         14.5820  -27.9750   -9.1500 O.3       1 <0>        -0.3150
     23 O5         14.3770  -27.5770  -11.4840 O.3       1 <0>        -0.3144
     24 Cl1         5.0930  -29.8990   -8.1100 Cl        1 <0>        -0.0835
     25 H1          7.4965  -30.2738   -9.4735 H         1 <0>         0.0633
     26 H2         10.2386  -26.5642   -8.5760 H         1 <0>         0.0622
     27 H3          9.1826  -28.6766  -10.3492 H         1 <0>         0.0637
     28 H4         12.3264  -27.4454   -7.5741 H         1 <0>         0.0644
     29 H5          5.0657  -27.0701   -8.0461 H         1 <0>         0.0635
     30 H6          6.0279  -24.6399   -9.5334 H         1 <0>         0.0408
     31 H7          6.8372  -24.6647   -7.9685 H         1 <0>         0.0408
     32 H8         16.1570  -27.5135  -10.4356 H         1 <0>         0.0880
     33 H9         15.4291  -29.1486  -10.6505 H         1 <0>         0.0880
     34 H10         9.8704  -25.0865  -11.6018 H         1 <0>         0.0518
     35 H11         9.3390  -26.7775  -11.8684 H         1 <0>         0.0518
@<TRIPOS>BOND
     1    1    3 ar
     2    1    9 ar
     3    2    4 ar
     4    2   10 ar
     5    3   11 ar
     6    4   12 ar
     7    5    9 ar
     8    5   13 ar
     9    6   13 1
    10    6   16 1
    11    7   22 1
    12    7   23 1
    13    8   10 1
    14    8   18 1
    15    9   24 1
    16   10   14 ar
    17   11   13 ar
    18   11   18 1
    19   12   15 ar
    20   12   22 1
    21   14   15 ar
    22   14   17 1
    23   15   23 1
    24   16   18 am
    25   16   20 2
    26   17   19 1
    27   17   21 2
    28    1   25 1
    29    2   26 1
    30    3   27 1
    31    4   28 1
    32    5   29 1
    33    6   30 1
    34    6   31 1
    35    7   32 1
    36    7   33 1
    37    8   34 1
    38    8   35 1
