@<TRIPOS>MOLECULE
naproxen_12
   31    32     0     0     0
SMALL
NO_CHARGES

@<TRIPOS>ATOM
      1 C1          0.5978   -1.6483   -2.3268 C.ar      1 <0>         0.0000
      2 C2         -2.1616   -4.1299   -2.2402 C.ar      1 <0>         0.0000
      3 C3          1.3696   -2.0612   -1.2405 C.ar      1 <0>         0.0000
      4 C4         -2.9334   -3.7168   -3.3266 C.ar      1 <0>         0.0000
      5 C5         -0.1937   -3.8492   -0.8080 C.ar      1 <0>         0.0000
      6 C6         -1.3702   -1.9288   -3.7590 C.ar      1 <0>         0.0000
      7 C7         -0.9827   -3.4475   -1.8981 C.ar      1 <0>         0.0000
      8 C8         -0.5811   -2.3306   -2.6689 C.ar      1 <0>         0.0000
      9 C9          0.9747   -3.1596   -0.4825 C.ar      1 <0>         0.0000
     10 C10        -2.5385   -2.6184   -4.0845 C.ar      1 <0>         0.0000
     11 C11         3.0806   -2.7709    0.8380 C.2       1 <0>         0.0000
     12 C12         1.0364   -3.6058    2.0175 C.3       1 <0>         0.0000
     13 C13        -4.4746   -2.9647   -5.4214 C.3       1 <0>         0.0000
     14 C14         1.8012   -3.5997    0.6781 C.3       1 <0>         0.0000
     15 O1          3.1688   -1.7619    1.5256 O.2       1 <0>         0.0000
     16 O2          4.1278   -3.2629    0.1245 O.3       1 <0>         0.0000
     17 O3         -3.2924   -2.2159   -5.1440 O.3       1 <0>         0.0000
     18 H1          0.9101   -0.7951   -2.9108 H         1 <0>         0.0000
     19 H2         -2.4739   -4.9830   -1.6563 H         1 <0>         0.0000
     20 H3          2.2742   -1.5282   -0.9875 H         1 <0>         0.0000
     21 H4         -3.8380   -4.2499   -3.5796 H         1 <0>         0.0000
     22 H5         -0.4943   -4.7007   -0.2156 H         1 <0>         0.0000
     23 H6         -1.0696   -1.0773   -4.3513 H         1 <0>         0.0000
     24 H7          1.7079   -3.9397    2.8222 H         1 <0>         0.0000
     25 H8          0.6762   -2.5902    2.2384 H         1 <0>         0.0000
     26 H9          0.1793   -4.2916    1.9471 H         1 <0>         0.0000
     27 H10        -4.9848   -2.5350   -6.2960 H         1 <0>         0.0000
     28 H11        -4.2054   -4.0104   -5.6312 H         1 <0>         0.0000
     29 H12        -5.1455   -2.9266   -4.5504 H         1 <0>         0.0000
     30 H13         2.1135   -4.6367    0.4853 H         1 <0>         0.0000
     31 H14         4.8885   -2.7090    0.2549 H         1 <0>         0.0000
@<TRIPOS>BOND
     1    1    3 ar
     2    1    8 ar
     3    2    4 ar
     4    2    7 ar
     5    3    9 ar
     6    4   10 ar
     7    5    7 ar
     8    5    9 ar
     9    6    8 ar
    10    6   10 ar
    11    7    8 ar
    12    9   14 1
    13   10   17 1
    14   11   14 1
    15   11   15 2
    16   11   16 1
    17   12   14 1
    18   13   17 1
    19    1   18 1
    20    2   19 1
    21    3   20 1
    22    4   21 1
    23    5   22 1
    24    6   23 1
    25   12   24 1
    26   12   25 1
    27   12   26 1
    28   13   27 1
    29   13   28 1
    30   13   29 1
    31   14   30 1
    32   16   31 1
@<TRIPOS>MOLECULE
naproxen_12
   31    32     0     0     0
SMALL
NO_CHARGES

@<TRIPOS>ATOM
      1 C1          0.5817   -1.6800   -2.3291 C.ar      1 <0>         0.0000
      2 C2         -2.1696   -4.1694   -2.2138 C.ar      1 <0>         0.0000
      3 C3          1.3586   -2.0822   -1.2423 C.ar      1 <0>         0.0000
      4 C4         -2.9464   -3.7672   -3.3007 C.ar      1 <0>         0.0000
      5 C5         -0.1976   -3.8716   -0.7907 C.ar      1 <0>         0.0000
      6 C6         -1.3903   -1.9777   -3.7522 C.ar      1 <0>         0.0000
      7 C7         -0.9917   -3.4808   -1.8811 C.ar      1 <0>         0.0000
      8 C8         -0.5962   -2.3686   -2.6618 C.ar      1 <0>         0.0000
      9 C9          0.9697   -3.1759   -0.4745 C.ar      1 <0>         0.0000
     10 C10        -2.5575   -2.6735   -4.0684 C.ar      1 <0>         0.0000
     11 C11         3.0789   -2.7704    0.8357 C.2       1 <0>         0.0000
     12 C12         1.0414   -3.6025    2.0286 C.3       1 <0>         0.0000
     13 C13        -2.8592   -1.1528   -5.8718 C.3       1 <0>         0.0000
     14 C14         1.8016   -3.6045    0.6866 C.3       1 <0>         0.0000
     15 O1          3.1663   -1.7559    1.5152 O.2       1 <0>         0.0000
     16 O2          4.1252   -3.2647    0.1224 O.3       1 <0>         0.0000
     17 O3         -3.3162   -2.2814   -5.1283 O.3       1 <0>         0.0000
     18 H1          0.8894   -0.8304   -2.9207 H         1 <0>         0.0000
     19 H2         -2.4772   -5.0190   -1.6223 H         1 <0>         0.0000
     20 H3          2.2623   -1.5444   -0.9966 H         1 <0>         0.0000
     21 H4         -3.8502   -4.3050   -3.5464 H         1 <0>         0.0000
     22 H5         -0.4936   -4.7194   -0.1906 H         1 <0>         0.0000
     23 H6         -1.0943   -1.1298   -4.3522 H         1 <0>         0.0000
     24 H7          1.7167   -3.9281    2.8336 H         1 <0>         0.0000
     25 H8          0.6788   -2.5864    2.2430 H         1 <0>         0.0000
     26 H9          0.1862   -4.2915    1.9664 H         1 <0>         0.0000
     27 H10        -3.5604   -0.9461   -6.6938 H         1 <0>         0.0000
     28 H11        -2.8021   -0.2763   -5.2096 H         1 <0>         0.0000
     29 H12        -1.8623   -1.3655   -6.2853 H         1 <0>         0.0000
     30 H13         2.1164   -4.6419    0.5007 H         1 <0>         0.0000
     31 H14         4.8846   -2.7074    0.2458 H         1 <0>         0.0000
@<TRIPOS>BOND
     1    1    3 ar
     2    1    8 ar
     3    2    4 ar
     4    2    7 ar
     5    3    9 ar
     6    4   10 ar
     7    5    7 ar
     8    5    9 ar
     9    6    8 ar
    10    6   10 ar
    11    7    8 ar
    12    9   14 1
    13   10   17 1
    14   11   14 1
    15   11   15 2
    16   11   16 1
    17   12   14 1
    18   13   17 1
    19    1   18 1
    20    2   19 1
    21    3   20 1
    22    4   21 1
    23    5   22 1
    24    6   23 1
    25   12   24 1
    26   12   25 1
    27   12   26 1
    28   13   27 1
    29   13   28 1
    30   13   29 1
    31   14   30 1
    32   16   31 1
@<TRIPOS>MOLECULE
naproxen_12
   31    32     0     0     0
SMALL
NO_CHARGES

@<TRIPOS>ATOM
      1 C1         -0.4346   -1.4894   -1.4897 C.ar      1 <0>         0.0000
      2 C2         -0.4140   -4.5248   -3.6265 C.ar      1 <0>         0.0000
      3 C3          0.3759   -1.8970   -0.4298 C.ar      1 <0>         0.0000
      4 C4         -1.2245   -4.1172   -4.6864 C.ar      1 <0>         0.0000
      5 C5          0.6692   -4.0504   -1.4807 C.ar      1 <0>         0.0000
      6 C6         -1.5179   -1.9638   -3.6354 C.ar      1 <0>         0.0000
      7 C7         -0.1442   -3.6569   -2.5558 C.ar      1 <0>         0.0000
      8 C8         -0.7044   -2.3573   -2.5604 C.ar      1 <0>         0.0000
      9 C9          0.9267   -3.1750   -0.4253 C.ar      1 <0>         0.0000
     10 C10        -1.7753   -2.8391   -4.6909 C.ar      1 <0>         0.0000
     11 C11         3.0713   -2.7712    0.8268 C.2       1 <0>         0.0000
     12 C12         1.0718   -3.6191    2.0716 C.3       1 <0>         0.0000
     13 C13        -3.0979   -1.1197   -5.6656 C.3       1 <0>         0.0000
     14 C14         1.7931   -3.6088    0.7084 C.3       1 <0>         0.0000
     15 O1          3.1747   -1.7611    1.5107 O.2       1 <0>         0.0000
     16 O2          4.0984   -3.2566    0.0802 O.3       1 <0>         0.0000
     17 O3         -2.5664   -2.4424   -5.7251 O.3       1 <0>         0.0000
     18 H1         -0.8588   -0.4962   -1.4869 H         1 <0>         0.0000
     19 H2          0.0102   -5.5180   -3.6293 H         1 <0>         0.0000
     20 H3          0.5759   -1.2203    0.3878 H         1 <0>         0.0000
     21 H4         -1.4245   -4.7939   -5.5040 H         1 <0>         0.0000
     22 H5          1.0998   -5.0408   -1.4708 H         1 <0>         0.0000
     23 H6         -1.9486   -0.9734   -3.6452 H         1 <0>         0.0000
     24 H7          1.7710   -3.9479    2.8546 H         1 <0>         0.0000
     25 H8          0.7120   -2.6058    2.3036 H         1 <0>         0.0000
     26 H9          0.2175   -4.3108    2.0291 H         1 <0>         0.0000
     27 H10        -3.7140   -0.9311   -6.5572 H         1 <0>         0.0000
     28 H11        -3.7175   -1.0139   -4.7629 H         1 <0>         0.0000
     29 H12        -2.2721   -0.3940   -5.6306 H         1 <0>         0.0000
     30 H13         2.1060   -4.6437    0.5062 H         1 <0>         0.0000
     31 H14         4.8591   -2.6974    0.1858 H         1 <0>         0.0000
@<TRIPOS>BOND
     1    1    3 ar
     2    1    8 ar
     3    2    4 ar
     4    2    7 ar
     5    3    9 ar
     6    4   10 ar
     7    5    7 ar
     8    5    9 ar
     9    6    8 ar
    10    6   10 ar
    11    7    8 ar
    12    9   14 1
    13   10   17 1
    14   11   14 1
    15   11   15 2
    16   11   16 1
    17   12   14 1
    18   13   17 1
    19    1   18 1
    20    2   19 1
    21    3   20 1
    22    4   21 1
    23    5   22 1
    24    6   23 1
    25   12   24 1
    26   12   25 1
    27   12   26 1
    28   13   27 1
    29   13   28 1
    30   13   29 1
    31   14   30 1
    32   16   31 1
@<TRIPOS>MOLECULE
naproxen_12
   31    32     0     0     0
SMALL
NO_CHARGES

@<TRIPOS>ATOM
      1 C1         -1.0145   -3.5701   -1.7993 C.ar      1 <0>         0.0000
      2 C2          0.8610   -0.6565   -3.1309 C.ar      1 <0>         0.0000
      3 C3         -0.2116   -3.9407   -0.7202 C.ar      1 <0>         0.0000
      4 C4          0.0581   -0.2860   -4.2100 C.ar      1 <0>         0.0000
      5 C5          1.3092   -2.1368   -1.2307 C.ar      1 <0>         0.0000
      6 C6         -1.4626   -2.0900   -3.6996 C.ar      1 <0>         0.0000
      7 C7          0.5129   -1.7496   -2.3208 C.ar      1 <0>         0.0000
      8 C8         -0.6663   -2.4771   -2.6094 C.ar      1 <0>         0.0000
      9 C9          0.9480   -3.2254   -0.4364 C.ar      1 <0>         0.0000
     10 C10        -1.1015   -1.0013   -4.4938 C.ar      1 <0>         0.0000
     11 C11         3.0725   -2.7689    0.8316 C.2       1 <0>         0.0000
     12 C12         1.0668   -3.6087    2.0719 C.3       1 <0>         0.0000
     13 C13        -3.0579   -1.4160   -5.7808 C.3       1 <0>         0.0000
     14 C14         1.8048   -3.6228    0.7177 C.3       1 <0>         0.0000
     15 O1          3.1568   -1.7419    1.4926 O.2       1 <0>         0.0000
     16 O2          4.1138   -3.2606    0.1094 O.3       1 <0>         0.0000
     17 O3         -1.8840   -0.6394   -5.5471 O.3       1 <0>         0.0000
     18 H1         -1.9130   -4.1296   -2.0138 H         1 <0>         0.0000
     19 H2          1.7595   -0.0970   -2.9163 H         1 <0>         0.0000
     20 H3         -0.4901   -4.7833   -0.1046 H         1 <0>         0.0000
     21 H4          0.3366    0.5566   -4.8256 H         1 <0>         0.0000
     22 H5          2.2104   -1.5861   -1.0049 H         1 <0>         0.0000
     23 H6         -2.3637   -2.6408   -3.9254 H         1 <0>         0.0000
     24 H7          1.7597   -3.9113    2.8709 H         1 <0>         0.0000
     25 H8          0.6935   -2.5942    2.2753 H         1 <0>         0.0000
     26 H9          0.2205   -4.3104    2.0355 H         1 <0>         0.0000
     27 H10        -3.5935   -1.0179   -6.6553 H         1 <0>         0.0000
     28 H11        -2.7739   -2.4618   -5.9698 H         1 <0>         0.0000
     29 H12        -3.7114   -1.3675   -4.8973 H         1 <0>         0.0000
     30 H13         2.1311   -4.6588    0.5440 H         1 <0>         0.0000
     31 H14         4.8673   -2.6910    0.2109 H         1 <0>         0.0000
@<TRIPOS>BOND
     1    1    3 ar
     2    1    8 ar
     3    2    4 ar
     4    2    7 ar
     5    3    9 ar
     6    4   10 ar
     7    5    7 ar
     8    5    9 ar
     9    6    8 ar
    10    6   10 ar
    11    7    8 ar
    12    9   14 1
    13   10   17 1
    14   11   14 1
    15   11   15 2
    16   11   16 1
    17   12   14 1
    18   13   17 1
    19    1   18 1
    20    2   19 1
    21    3   20 1
    22    4   21 1
    23    5   22 1
    24    6   23 1
    25   12   24 1
    26   12   25 1
    27   12   26 1
    28   13   27 1
    29   13   28 1
    30   13   29 1
    31   14   30 1
    32   16   31 1
@<TRIPOS>MOLECULE
naproxen_12
   31    32     0     0     0
SMALL
NO_CHARGES

@<TRIPOS>ATOM
      1 C1         -0.4325   -1.4665   -1.4790 C.ar      1 <0>         0.0000
      2 C2         -0.4250   -4.4905   -3.6319 C.ar      1 <0>         0.0000
      3 C3          0.3781   -1.8824   -0.4224 C.ar      1 <0>         0.0000
      4 C4         -1.2357   -4.0746   -4.6884 C.ar      1 <0>         0.0000
      5 C5          0.6629   -4.0311   -1.4852 C.ar      1 <0>         0.0000
      6 C6         -1.5205   -1.9259   -3.6256 C.ar      1 <0>         0.0000
      7 C7         -0.1508   -3.6293   -2.5570 C.ar      1 <0>         0.0000
      8 C8         -0.7068   -2.3278   -2.5538 C.ar      1 <0>         0.0000
      9 C9          0.9248   -3.1622   -0.4255 C.ar      1 <0>         0.0000
     10 C10        -1.7824   -2.7947   -4.6853 C.ar      1 <0>         0.0000
     11 C11         3.0725   -2.7720    0.8255 C.2       1 <0>         0.0000
     12 C12         1.0721   -3.6200    2.0688 C.3       1 <0>         0.0000
     13 C13        -2.8012   -3.3278   -6.7670 C.3       1 <0>         0.0000
     14 C14         1.7914   -3.6048    0.7045 C.3       1 <0>         0.0000
     15 O1          3.1802   -1.7660    1.5147 O.2       1 <0>         0.0000
     16 O2          4.0969   -3.2568    0.0748 O.3       1 <0>         0.0000
     17 O3         -2.5736   -2.3899   -5.7163 O.3       1 <0>         0.0000
     18 H1         -0.8535   -0.4719   -1.4702 H         1 <0>         0.0000
     19 H2         -0.0040   -5.4851   -3.6407 H         1 <0>         0.0000
     20 H3          0.5816   -1.2106    0.3984 H         1 <0>         0.0000
     21 H4         -1.4391   -4.7463   -5.5093 H         1 <0>         0.0000
     22 H5          1.0903   -5.0229   -1.4812 H         1 <0>         0.0000
     23 H6         -1.9480   -0.9341   -3.6295 H         1 <0>         0.0000
     24 H7          1.7714   -3.9553    2.8489 H         1 <0>         0.0000
     25 H8          0.7159   -2.6068    2.3066 H         1 <0>         0.0000
     26 H9          0.2155   -4.3087    2.0238 H         1 <0>         0.0000
     27 H10        -3.4521   -2.8746   -7.5292 H         1 <0>         0.0000
     28 H11        -1.8403   -3.6063   -7.2243 H         1 <0>         0.0000
     29 H12        -3.2865   -4.2262   -6.3578 H         1 <0>         0.0000
     30 H13         2.1007   -4.6397    0.4963 H         1 <0>         0.0000
     31 H14         4.8596   -2.7007    0.1823 H         1 <0>         0.0000
@<TRIPOS>BOND
     1    1    3 ar
     2    1    8 ar
     3    2    4 ar
     4    2    7 ar
     5    3    9 ar
     6    4   10 ar
     7    5    7 ar
     8    5    9 ar
     9    6    8 ar
    10    6   10 ar
    11    7    8 ar
    12    9   14 1
    13   10   17 1
    14   11   14 1
    15   11   15 2
    16   11   16 1
    17   12   14 1
    18   13   17 1
    19    1   18 1
    20    2   19 1
    21    3   20 1
    22    4   21 1
    23    5   22 1
    24    6   23 1
    25   12   24 1
    26   12   25 1
    27   12   26 1
    28   13   27 1
    29   13   28 1
    30   13   29 1
    31   14   30 1
    32   16   31 1
@<TRIPOS>MOLECULE
naproxen_12
   31    32     0     0     0
SMALL
NO_CHARGES

@<TRIPOS>ATOM
      1 C1          0.7725   -3.2452   -2.8980 C.ar      1 <0>         0.0000
      2 C2         -2.3811   -1.9905   -1.3945 C.ar      1 <0>         0.0000
      3 C3          1.5230   -3.5313   -1.7573 C.ar      1 <0>         0.0000
      4 C4         -3.1317   -1.7044   -2.5353 C.ar      1 <0>         0.0000
      5 C5         -0.3089   -2.7981   -0.3666 C.ar      1 <0>         0.0000
      6 C6         -1.2997   -2.4376   -3.9260 C.ar      1 <0>         0.0000
      7 C7         -1.0787   -2.5044   -1.5040 C.ar      1 <0>         0.0000
      8 C8         -0.5299   -2.7313   -2.7886 C.ar      1 <0>         0.0000
      9 C9          0.9834   -3.3082   -0.4941 C.ar      1 <0>         0.0000
     10 C10        -2.5920   -1.9276   -3.7986 C.ar      1 <0>         0.0000
     11 C11         3.1239   -2.8655    0.7518 C.2       1 <0>         0.0000
     12 C12         1.0363   -3.3510    2.0453 C.3       1 <0>         0.0000
     13 C13        -2.7103   -1.9003   -6.1737 C.3       1 <0>         0.0000
     14 C14         1.7871   -3.6149    0.7241 C.3       1 <0>         0.0000
     15 O1          3.9878   -2.9615   -0.1103 O.2       1 <0>         0.0000
     16 O2          3.2701   -2.0755    1.8483 O.3       1 <0>         0.0000
     17 O3         -3.3247   -1.6477   -4.9110 O.3       1 <0>         0.0000
     18 H1          1.1974   -3.4208   -3.8753 H         1 <0>         0.0000
     19 H2         -2.8061   -1.8150   -0.4173 H         1 <0>         0.0000
     20 H3          2.5235   -3.9262   -1.8547 H         1 <0>         0.0000
     21 H4         -4.1322   -1.3096   -2.4380 H         1 <0>         0.0000
     22 H5         -0.7215   -2.6272    0.6167 H         1 <0>         0.0000
     23 H6         -0.8870   -2.6083   -4.9093 H         1 <0>         0.0000
     24 H7          1.6896   -3.5991    2.8948 H         1 <0>         0.0000
     25 H8          0.7517   -2.2899    2.0995 H         1 <0>         0.0000
     26 H9          0.1317   -3.9757    2.0839 H         1 <0>         0.0000
     27 H10        -3.4072   -1.6321   -6.9814 H         1 <0>         0.0000
     28 H11        -1.7953   -1.2963   -6.2634 H         1 <0>         0.0000
     29 H12        -2.4542   -2.9673   -6.2498 H         1 <0>         0.0000
     30 H13         2.0226   -4.6892    0.7011 H         1 <0>         0.0000
     31 H14         4.1151   -1.6425    1.8168 H         1 <0>         0.0000
@<TRIPOS>BOND
     1    1    3 ar
     2    1    8 ar
     3    2    4 ar
     4    2    7 ar
     5    3    9 ar
     6    4   10 ar
     7    5    7 ar
     8    5    9 ar
     9    6    8 ar
    10    6   10 ar
    11    7    8 ar
    12    9   14 1
    13   10   17 1
    14   11   14 1
    15   11   15 2
    16   11   16 1
    17   12   14 1
    18   13   17 1
    19    1   18 1
    20    2   19 1
    21    3   20 1
    22    4   21 1
    23    5   22 1
    24    6   23 1
    25   12   24 1
    26   12   25 1
    27   12   26 1
    28   13   27 1
    29   13   28 1
    30   13   29 1
    31   14   30 1
    32   16   31 1
@<TRIPOS>MOLECULE
naproxen_12
   31    32     0     0     0
SMALL
NO_CHARGES

@<TRIPOS>ATOM
      1 C1          0.8126   -3.2706   -2.9166 C.ar      1 <0>         0.0000
      2 C2         -2.3565   -2.0043   -1.4560 C.ar      1 <0>         0.0000
      3 C3          1.5509   -3.5485   -1.7658 C.ar      1 <0>         0.0000
      4 C4         -3.0947   -1.7264   -2.6068 C.ar      1 <0>         0.0000
      5 C5         -0.2956   -2.8047   -0.4002 C.ar      1 <0>         0.0000
      6 C6         -1.2482   -2.4701   -3.9724 C.ar      1 <0>         0.0000
      7 C7         -1.0532   -2.5192   -1.5478 C.ar      1 <0>         0.0000
      8 C8         -0.4908   -2.7556   -2.8248 C.ar      1 <0>         0.0000
      9 C9          0.9978   -3.3160   -0.5101 C.ar      1 <0>         0.0000
     10 C10        -2.5417   -1.9589   -3.8626 C.ar      1 <0>         0.0000
     11 C11         3.1251   -2.8647    0.7553 C.2       1 <0>         0.0000
     12 C12         1.0237   -3.3403    2.0299 C.3       1 <0>         0.0000
     13 C13        -4.5778   -1.1657   -4.8012 C.3       1 <0>         0.0000
     14 C14         1.7884   -3.6140    0.7188 C.3       1 <0>         0.0000
     15 O1          3.9981   -2.9671   -0.0968 O.2       1 <0>         0.0000
     16 O2          3.2598   -2.0667    1.8474 O.3       1 <0>         0.0000
     17 O3         -3.2625   -1.6870   -4.9848 O.3       1 <0>         0.0000
     18 H1          1.2479   -3.4534   -3.8879 H         1 <0>         0.0000
     19 H2         -2.7918   -1.8215   -0.4847 H         1 <0>         0.0000
     20 H3          2.5522   -3.9443   -1.8496 H         1 <0>         0.0000
     21 H4         -4.0961   -1.3306   -2.5231 H         1 <0>         0.0000
     22 H5         -0.7186   -2.6266    0.5774 H         1 <0>         0.0000
     23 H6         -0.8251   -2.6481   -4.9500 H         1 <0>         0.0000
     24 H7          1.6678   -3.5822    2.8881 H         1 <0>         0.0000
     25 H8          0.7388   -2.2787    2.0733 H         1 <0>         0.0000
     26 H9          0.1185   -3.9645    2.0635 H         1 <0>         0.0000
     27 H10        -5.0444   -0.9926   -5.7821 H         1 <0>         0.0000
     28 H11        -5.1814   -1.8867   -4.2303 H         1 <0>         0.0000
     29 H12        -4.5219   -0.2160   -4.2491 H         1 <0>         0.0000
     30 H13         2.0239   -4.6884    0.7062 H         1 <0>         0.0000
     31 H14         4.1052   -1.6341    1.8218 H         1 <0>         0.0000
@<TRIPOS>BOND
     1    1    3 ar
     2    1    8 ar
     3    2    4 ar
     4    2    7 ar
     5    3    9 ar
     6    4   10 ar
     7    5    7 ar
     8    5    9 ar
     9    6    8 ar
    10    6   10 ar
    11    7    8 ar
    12    9   14 1
    13   10   17 1
    14   11   14 1
    15   11   15 2
    16   11   16 1
    17   12   14 1
    18   13   17 1
    19    1   18 1
    20    2   19 1
    21    3   20 1
    22    4   21 1
    23    5   22 1
    24    6   23 1
    25   12   24 1
    26   12   25 1
    27   12   26 1
    28   13   27 1
    29   13   28 1
    30   13   29 1
    31   14   30 1
    32   16   31 1
@<TRIPOS>MOLECULE
naproxen_12
   31    32     0     0     0
SMALL
NO_CHARGES

@<TRIPOS>ATOM
      1 C1         -1.0099   -3.5420   -1.8123 C.ar      1 <0>         0.0000
      2 C2          0.8799   -0.6292   -3.1252 C.ar      1 <0>         0.0000
      3 C3         -0.2109   -3.9211   -0.7333 C.ar      1 <0>         0.0000
      4 C4          0.0808   -0.2501   -4.2042 C.ar      1 <0>         0.0000
      5 C5          1.3181   -2.1206   -1.2314 C.ar      1 <0>         0.0000
      6 C6         -1.4480   -2.0507   -3.7061 C.ar      1 <0>         0.0000
      7 C7          0.5257   -1.7250   -2.3214 C.ar      1 <0>         0.0000
      8 C8         -0.6557   -2.4463   -2.6162 C.ar      1 <0>         0.0000
      9 C9          0.9509   -3.2118   -0.4434 C.ar      1 <0>         0.0000
     10 C10        -1.0809   -0.9595   -4.4941 C.ar      1 <0>         0.0000
     11 C11         3.0744   -2.7700    0.8315 C.2       1 <0>         0.0000
     12 C12         1.0626   -3.6081    2.0632 C.3       1 <0>         0.0000
     13 C13        -1.4262    0.5347   -6.3118 C.3       1 <0>         0.0000
     14 C14         1.8035   -3.6184    0.7106 C.3       1 <0>         0.0000
     15 O1          3.1611   -1.7466    1.4978 O.2       1 <0>         0.0000
     16 O2          4.1153   -3.2622    0.1091 O.3       1 <0>         0.0000
     17 O3         -1.8597   -0.5893   -5.5473 O.3       1 <0>         0.0000
     18 H1         -1.9102   -4.0969   -2.0316 H         1 <0>         0.0000
     19 H2          1.7801   -0.0743   -2.9059 H         1 <0>         0.0000
     20 H3         -0.4941   -4.7657   -0.1226 H         1 <0>         0.0000
     21 H4          0.3640    0.5944   -4.8149 H         1 <0>         0.0000
     22 H5          2.2209   -1.5746   -1.0009 H         1 <0>         0.0000
     23 H6         -2.3508   -2.5968   -3.9367 H         1 <0>         0.0000
     24 H7          1.7525   -3.9174    2.8622 H         1 <0>         0.0000
     25 H8          0.6928   -2.5931    2.2709 H         1 <0>         0.0000
     26 H9          0.2136   -4.3063    2.0214 H         1 <0>         0.0000
     27 H10        -2.1419    0.7233   -7.1256 H         1 <0>         0.0000
     28 H11        -1.3689    1.4201   -5.6616 H         1 <0>         0.0000
     29 H12        -0.4333    0.3275   -6.7375 H         1 <0>         0.0000
     30 H13         2.1262   -4.6548    0.5324 H         1 <0>         0.0000
     31 H14         4.8708   -2.6960    0.2152 H         1 <0>         0.0000
@<TRIPOS>BOND
     1    1    3 ar
     2    1    8 ar
     3    2    4 ar
     4    2    7 ar
     5    3    9 ar
     6    4   10 ar
     7    5    7 ar
     8    5    9 ar
     9    6    8 ar
    10    6   10 ar
    11    7    8 ar
    12    9   14 1
    13   10   17 1
    14   11   14 1
    15   11   15 2
    16   11   16 1
    17   12   14 1
    18   13   17 1
    19    1   18 1
    20    2   19 1
    21    3   20 1
    22    4   21 1
    23    5   22 1
    24    6   23 1
    25   12   24 1
    26   12   25 1
    27   12   26 1
    28   13   27 1
    29   13   28 1
    30   13   29 1
    31   14   30 1
    32   16   31 1
@<TRIPOS>MOLECULE
naproxen_12
   31    32     0     0     0
SMALL
NO_CHARGES

@<TRIPOS>ATOM
      1 C1         -1.1309   -2.4166   -1.3844 C.ar      1 <0>         0.0000
      2 C2          1.1521   -3.3062   -4.1730 C.ar      1 <0>         0.0000
      3 C3         -0.3480   -2.7432   -0.2767 C.ar      1 <0>         0.0000
      4 C4          0.3692   -2.9796   -5.2806 C.ar      1 <0>         0.0000
      5 C5          1.4360   -3.4458   -1.7434 C.ar      1 <0>         0.0000
      6 C6         -1.4149   -2.2771   -3.8139 C.ar      1 <0>         0.0000
      7 C7          0.6619   -3.1225   -2.8698 C.ar      1 <0>         0.0000
      8 C8         -0.6407   -2.6003   -2.6876 C.ar      1 <0>         0.0000
      9 C9          0.9330   -3.2568   -0.4559 C.ar      1 <0>         0.0000
     10 C10        -0.9119   -2.4660   -5.1014 C.ar      1 <0>         0.0000
     11 C11         3.1111   -2.8655    0.7411 C.2       1 <0>         0.0000
     12 C12         1.0573   -3.3755    2.0785 C.3       1 <0>         0.0000
     13 C13        -2.9783   -1.6265   -5.9265 C.3       1 <0>         0.0000
     14 C14         1.7685   -3.6049    0.7293 C.3       1 <0>         0.0000
     15 O1          3.9495   -2.9414   -0.1477 O.2       1 <0>         0.0000
     16 O2          3.2941   -2.1094    1.8558 O.3       1 <0>         0.0000
     17 O3         -1.6752   -2.1481   -6.1826 O.3       1 <0>         0.0000
     18 H1         -2.1241   -2.0185   -1.2381 H         1 <0>         0.0000
     19 H2          2.1454   -3.7043   -4.3192 H         1 <0>         0.0000
     20 H3         -0.7363   -2.5973    0.7204 H         1 <0>         0.0000
     21 H4          0.7575   -3.1254   -6.2778 H         1 <0>         0.0000
     22 H5          2.4309   -3.8448   -1.8753 H         1 <0>         0.0000
     23 H6         -2.4098   -1.8782   -3.6820 H         1 <0>         0.0000
     24 H7          1.7326   -3.6530    2.9014 H         1 <0>         0.0000
     25 H8          0.7822   -2.3145    2.1721 H         1 <0>         0.0000
     26 H9          0.1496   -3.9951    2.1244 H         1 <0>         0.0000
     27 H10        -3.4828   -1.4140   -6.8807 H         1 <0>         0.0000
     28 H11        -3.5636   -2.3648   -5.3589 H         1 <0>         0.0000
     29 H12        -2.8932   -0.6984   -5.3423 H         1 <0>         0.0000
     30 H13         1.9953   -4.6795    0.6679 H         1 <0>         0.0000
     31 H14         4.1411   -1.6812    1.8130 H         1 <0>         0.0000
@<TRIPOS>BOND
     1    1    3 ar
     2    1    8 ar
     3    2    4 ar
     4    2    7 ar
     5    3    9 ar
     6    4   10 ar
     7    5    7 ar
     8    5    9 ar
     9    6    8 ar
    10    6   10 ar
    11    7    8 ar
    12    9   14 1
    13   10   17 1
    14   11   14 1
    15   11   15 2
    16   11   16 1
    17   12   14 1
    18   13   17 1
    19    1   18 1
    20    2   19 1
    21    3   20 1
    22    4   21 1
    23    5   22 1
    24    6   23 1
    25   12   24 1
    26   12   25 1
    27   12   26 1
    28   13   27 1
    29   13   28 1
    30   13   29 1
    31   14   30 1
    32   16   31 1
@<TRIPOS>MOLECULE
naproxen_12
   31    32     0     0     0
SMALL
NO_CHARGES

@<TRIPOS>ATOM
      1 C1         -1.1166   -2.3947   -1.4026 C.ar      1 <0>         0.0000
      2 C2          1.1744   -3.2843   -4.1847 C.ar      1 <0>         0.0000
      3 C3         -0.3397   -2.7283   -0.2928 C.ar      1 <0>         0.0000
      4 C4          0.3974   -2.9507   -5.2944 C.ar      1 <0>         0.0000
      5 C5          1.4475   -3.4333   -1.7545 C.ar      1 <0>         0.0000
      6 C6         -1.3898   -2.2458   -3.8328 C.ar      1 <0>         0.0000
      7 C7          0.6795   -3.1030   -2.8829 C.ar      1 <0>         0.0000
      8 C8         -0.6217   -2.5760   -2.7043 C.ar      1 <0>         0.0000
      9 C9          0.9399   -3.2466   -0.4684 C.ar      1 <0>         0.0000
     10 C10        -0.8822   -2.4324   -5.1188 C.ar      1 <0>         0.0000
     11 C11         3.1146   -2.8684    0.7389 C.2       1 <0>         0.0000
     12 C12         1.0532   -3.3744    2.0661 C.3       1 <0>         0.0000
     13 C13        -1.0605   -2.3241   -7.4878 C.3       1 <0>         0.0000
     14 C14         1.7690   -3.6022    0.7191 C.3       1 <0>         0.0000
     15 O1          3.9564   -2.9448   -0.1466 O.2       1 <0>         0.0000
     16 O2          3.2961   -2.1168    1.8570 O.3       1 <0>         0.0000
     17 O3         -1.6398   -2.1077   -6.2021 O.3       1 <0>         0.0000
     18 H1         -2.1088   -1.9930   -1.2591 H         1 <0>         0.0000
     19 H2          2.1666   -3.6860   -4.3282 H         1 <0>         0.0000
     20 H3         -0.7315   -2.5842    0.7032 H         1 <0>         0.0000
     21 H4          0.7893   -3.0947   -6.2905 H         1 <0>         0.0000
     22 H5          2.4413   -3.8360   -1.8835 H         1 <0>         0.0000
     23 H6         -2.3836   -1.8432   -3.7037 H         1 <0>         0.0000
     24 H7          1.7238   -3.6575    2.8908 H         1 <0>         0.0000
     25 H8          0.7821   -2.3127    2.1621 H         1 <0>         0.0000
     26 H9          0.1427   -3.9904    2.1061 H         1 <0>         0.0000
     27 H10        -1.7746   -2.0217   -8.2679 H         1 <0>         0.0000
     28 H11        -0.1413   -1.7271   -7.5809 H         1 <0>         0.0000
     29 H12        -0.8185   -3.3907   -7.6060 H         1 <0>         0.0000
     30 H13         1.9917   -4.6775    0.6549 H         1 <0>         0.0000
     31 H14         4.1450   -1.6920    1.8192 H         1 <0>         0.0000
@<TRIPOS>BOND
     1    1    3 ar
     2    1    8 ar
     3    2    4 ar
     4    2    7 ar
     5    3    9 ar
     6    4   10 ar
     7    5    7 ar
     8    5    9 ar
     9    6    8 ar
    10    6   10 ar
    11    7    8 ar
    12    9   14 1
    13   10   17 1
    14   11   14 1
    15   11   15 2
    16   11   16 1
    17   12   14 1
    18   13   17 1
    19    1   18 1
    20    2   19 1
    21    3   20 1
    22    4   21 1
    23    5   22 1
    24    6   23 1
    25   12   24 1
    26   12   25 1
    27   12   26 1
    28   13   27 1
    29   13   28 1
    30   13   29 1
    31   14   30 1
    32   16   31 1
@<TRIPOS>MOLECULE
naproxen_9
   31    32     0     0     0
SMALL
NO_CHARGES

@<TRIPOS>ATOM
      1 C1         -1.3349    5.9000   -3.5658 C.ar      1 <0>         0.0000
      2 C2         -1.0341    2.6149   -5.2681 C.ar      1 <0>         0.0000
      3 C3         -0.0078    6.3304   -3.5680 C.ar      1 <0>         0.0000
      4 C4         -2.3613    2.1846   -5.2658 C.ar      1 <0>         0.0000
      5 C5          0.6497    4.3007   -4.6975 C.ar      1 <0>         0.0000
      6 C6         -3.0188    4.2142   -4.1363 C.ar      1 <0>         0.0000
      7 C7         -0.6809    3.8516   -4.7041 C.ar      1 <0>         0.0000
      8 C8         -1.6881    4.6632   -4.1298 C.ar      1 <0>         0.0000
      9 C9          0.9826    5.5322   -4.1328 C.ar      1 <0>         0.0000
     10 C10        -3.3517    2.9827   -4.7010 C.ar      1 <0>         0.0000
     11 C11         2.9233    6.2964   -2.7257 C.2       1 <0>         0.0000
     12 C12         3.3702    5.0176   -4.8308 C.3       1 <0>         0.0000
     13 C13        -4.9173    1.2929   -5.2919 C.3       1 <0>         0.0000
     14 C14         2.4006    5.9942   -4.1346 C.3       1 <0>         0.0000
     15 O1          2.5538    5.7169   -1.7126 O.2       1 <0>         0.0000
     16 O2          3.8466    7.2937   -2.7017 O.3       1 <0>         0.0000
     17 O3         -4.6462    2.5618   -4.6988 O.3       1 <0>         0.0000
     18 H1         -2.0985    6.5243   -3.1259 H         1 <0>         0.0000
     19 H2         -0.2706    1.9906   -5.7081 H         1 <0>         0.0000
     20 H3          0.2511    7.2835   -3.1312 H         1 <0>         0.0000
     21 H4         -2.6202    1.2314   -5.7027 H         1 <0>         0.0000
     22 H5          1.4233    3.6863   -5.1340 H         1 <0>         0.0000
     23 H6         -3.7923    4.8285   -3.6996 H         1 <0>         0.0000
     24 H7          4.3915    5.4243   -4.7923 H         1 <0>         0.0000
     25 H8          3.3432    4.0454   -4.3168 H         1 <0>         0.0000
     26 H9          3.0674    4.8861   -5.8801 H         1 <0>         0.0000
     27 H10        -5.9938    1.0775   -5.2224 H         1 <0>         0.0000
     28 H11        -4.6145    1.3103   -6.3493 H         1 <0>         0.0000
     29 H12        -4.3523    0.5122   -4.7616 H         1 <0>         0.0000
     30 H13         2.4387    6.9373   -4.6994 H         1 <0>         0.0000
     31 H14         4.1294    7.4425   -1.8070 H         1 <0>         0.0000
@<TRIPOS>BOND
     1    1    3 ar
     2    1    8 ar
     3    2    4 ar
     4    2    7 ar
     5    3    9 ar
     6    4   10 ar
     7    5    7 ar
     8    5    9 ar
     9    6    8 ar
    10    6   10 ar
    11    7    8 ar
    12    9   14 1
    13   10   17 1
    14   11   14 1
    15   11   15 2
    16   11   16 1
    17   12   14 1
    18   13   17 1
    19    1   18 1
    20    2   19 1
    21    3   20 1
    22    4   21 1
    23    5   22 1
    24    6   23 1
    25   12   24 1
    26   12   25 1
    27   12   26 1
    28   13   27 1
    29   13   28 1
    30   13   29 1
    31   14   30 1
    32   16   31 1
@<TRIPOS>MOLECULE
naproxen_9
   31    32     0     0     0
SMALL
NO_CHARGES

@<TRIPOS>ATOM
      1 C1         -1.3339    5.8601   -3.5796 C.ar      1 <0>         0.0000
      2 C2         -0.9958    2.5817   -5.2879 C.ar      1 <0>         0.0000
      3 C3         -0.0110    6.3032   -3.5764 C.ar      1 <0>         0.0000
      4 C4         -2.3187    2.1387   -5.2911 C.ar      1 <0>         0.0000
      5 C5          0.6698    4.2824   -4.7079 C.ar      1 <0>         0.0000
      6 C6         -2.9995    4.1595   -4.1595 C.ar      1 <0>         0.0000
      7 C7         -0.6564    3.8206   -4.7200 C.ar      1 <0>         0.0000
      8 C8         -1.6733    4.6212   -4.1474 C.ar      1 <0>         0.0000
      9 C9          0.9889    5.5159   -4.1394 C.ar      1 <0>         0.0000
     10 C10        -3.3187    2.9260   -4.7280 C.ar      1 <0>         0.0000
     11 C11         2.9173    6.2955   -2.7240 C.2       1 <0>         0.0000
     12 C12         3.3838    5.0256   -4.8303 C.3       1 <0>         0.0000
     13 C13        -5.5831    3.3497   -4.1373 C.3       1 <0>         0.0000
     14 C14         2.4024    5.9914   -4.1353 C.3       1 <0>         0.0000
     15 O1          2.5500    5.7103   -1.7135 O.2       1 <0>         0.0000
     16 O2          3.8310    7.3016   -2.6947 O.3       1 <0>         0.0000
     17 O3         -4.6091    2.4928   -4.7311 O.3       1 <0>         0.0000
     18 H1         -2.1050    6.4761   -3.1410 H         1 <0>         0.0000
     19 H2         -0.2248    1.9657   -5.7266 H         1 <0>         0.0000
     20 H3          0.2372    7.2578   -3.1366 H         1 <0>         0.0000
     21 H4         -2.5670    1.1840   -5.7308 H         1 <0>         0.0000
     22 H5          1.4508    3.6764   -5.1431 H         1 <0>         0.0000
     23 H6         -3.7804    4.7654   -3.7242 H         1 <0>         0.0000
     24 H7          4.4010    5.4420   -4.7875 H         1 <0>         0.0000
     25 H8          3.3643    4.0522   -4.3185 H         1 <0>         0.0000
     26 H9          3.0858    4.8935   -5.8809 H         1 <0>         0.0000
     27 H10        -6.5759    2.8813   -4.2077 H         1 <0>         0.0000
     28 H11        -5.3299    3.5149   -3.0797 H         1 <0>         0.0000
     29 H12        -5.5943    4.3139   -4.6666 H         1 <0>         0.0000
     30 H13         2.4334    6.9361   -4.6980 H         1 <0>         0.0000
     31 H14         4.1093    7.4512   -1.7988 H         1 <0>         0.0000
@<TRIPOS>BOND
     1    1    3 ar
     2    1    8 ar
     3    2    4 ar
     4    2    7 ar
     5    3    9 ar
     6    4   10 ar
     7    5    7 ar
     8    5    9 ar
     9    6    8 ar
    10    6   10 ar
    11    7    8 ar
    12    9   14 1
    13   10   17 1
    14   11   14 1
    15   11   15 2
    16   11   16 1
    17   12   14 1
    18   13   17 1
    19    1   18 1
    20    2   19 1
    21    3   20 1
    22    4   21 1
    23    5   22 1
    24    6   23 1
    25   12   24 1
    26   12   25 1
    27   12   26 1
    28   13   27 1
    29   13   28 1
    30   13   29 1
    31   14   30 1
    32   16   31 1
@<TRIPOS>MOLECULE
naproxen_9
   31    32     0     0     0
SMALL
NO_CHARGES

@<TRIPOS>ATOM
      1 C1         -0.5723    3.7550   -4.7660 C.ar      1 <0>         0.0000
      2 C2         -2.3814    6.5111   -3.0598 C.ar      1 <0>         0.0000
      3 C3          0.7374    4.2354   -4.7458 C.ar      1 <0>         0.0000
      4 C4         -3.6910    6.0307   -3.0800 C.ar      1 <0>         0.0000
      5 C5         -0.0101    6.2287   -3.6076 C.ar      1 <0>         0.0000
      6 C6         -2.9436    4.0374   -4.2183 C.ar      1 <0>         0.0000
      7 C7         -1.3342    5.7608   -3.6190 C.ar      1 <0>         0.0000
      8 C8         -1.6195    4.5054   -4.2069 C.ar      1 <0>         0.0000
      9 C9          1.0179    5.4698   -4.1677 C.ar      1 <0>         0.0000
     10 C10        -3.9716    4.7962   -3.6581 C.ar      1 <0>         0.0000
     11 C11         2.9121    6.2890   -2.7285 C.2       1 <0>         0.0000
     12 C12         3.4311    5.0461   -4.8386 C.3       1 <0>         0.0000
     13 C13        -5.4662    3.0562   -4.2861 C.3       1 <0>         0.0000
     14 C14         2.4186    5.9815   -4.1468 C.3       1 <0>         0.0000
     15 O1          2.5504    5.6875   -1.7255 O.2       1 <0>         0.0000
     16 O2          3.7992    7.3180   -2.6836 O.3       1 <0>         0.0000
     17 O3         -5.2498    4.3285   -3.6779 O.3       1 <0>         0.0000
     18 H1         -0.7830    2.7962   -5.2162 H         1 <0>         0.0000
     19 H2         -2.1707    7.4699   -2.6095 H         1 <0>         0.0000
     20 H3          1.5340    3.6489   -5.1791 H         1 <0>         0.0000
     21 H4         -4.4877    6.6172   -2.6467 H         1 <0>         0.0000
     22 H5          0.2147    7.1859   -3.1606 H         1 <0>         0.0000
     23 H6         -3.1684    3.0804   -4.6654 H         1 <0>         0.0000
     24 H7          4.4368    5.4882   -4.7831 H         1 <0>         0.0000
     25 H8          3.4318    4.0689   -4.3335 H         1 <0>         0.0000
     26 H9          3.1466    4.9136   -5.8929 H         1 <0>         0.0000
     27 H10        -6.5349    2.8012   -4.2336 H         1 <0>         0.0000
     28 H11        -5.1498    3.0947   -5.3389 H         1 <0>         0.0000
     29 H12        -4.8804    2.2916   -3.7549 H         1 <0>         0.0000
     30 H13         2.4306    6.9305   -4.7028 H         1 <0>         0.0000
     31 H14         4.0650    7.4685   -1.7841 H         1 <0>         0.0000
@<TRIPOS>BOND
     1    1    3 ar
     2    1    8 ar
     3    2    4 ar
     4    2    7 ar
     5    3    9 ar
     6    4   10 ar
     7    5    7 ar
     8    5    9 ar
     9    6    8 ar
    10    6   10 ar
    11    7    8 ar
    12    9   14 1
    13   10   17 1
    14   11   14 1
    15   11   15 2
    16   11   16 1
    17   12   14 1
    18   13   17 1
    19    1   18 1
    20    2   19 1
    21    3   20 1
    22    4   21 1
    23    5   22 1
    24    6   23 1
    25   12   24 1
    26   12   25 1
    27   12   26 1
    28   13   27 1
    29   13   28 1
    30   13   29 1
    31   14   30 1
    32   16   31 1
@<TRIPOS>MOLECULE
naproxen_9
   31    32     0     0     0
SMALL
NO_CHARGES

@<TRIPOS>ATOM
      1 C1         -0.5961    3.7765   -4.7570 C.ar      1 <0>         0.0000
      2 C2         -2.3789    6.5530   -3.0562 C.ar      1 <0>         0.0000
      3 C3          0.7177    4.2456   -4.7400 C.ar      1 <0>         0.0000
      4 C4         -3.6927    6.0838   -3.0732 C.ar      1 <0>         0.0000
      5 C5         -0.0109    6.2486   -3.6065 C.ar      1 <0>         0.0000
      6 C6         -2.9641    4.0809   -4.2069 C.ar      1 <0>         0.0000
      7 C7         -1.3390    5.7920   -3.6147 C.ar      1 <0>         0.0000
      8 C8         -1.6360    4.5375   -4.1986 C.ar      1 <0>         0.0000
      9 C9          1.0097    5.4793   -4.1658 C.ar      1 <0>         0.0000
     10 C10        -3.9847    4.8501   -3.6474 C.ar      1 <0>         0.0000
     11 C11         2.9129    6.2862   -2.7316 C.2       1 <0>         0.0000
     12 C12         3.4182    5.0328   -4.8389 C.3       1 <0>         0.0000
     13 C13        -6.2617    5.2298   -3.0756 C.3       1 <0>         0.0000
     14 C14         2.4147    5.9789   -4.1483 C.3       1 <0>         0.0000
     15 O1          2.5474    5.6908   -1.7264 O.2       1 <0>         0.0000
     16 O2          3.8089    7.3076   -2.6909 O.3       1 <0>         0.0000
     17 O3         -5.2669    4.3934   -3.6641 O.3       1 <0>         0.0000
     18 H1         -0.8157    2.8183   -5.2042 H         1 <0>         0.0000
     19 H2         -2.1594    7.5112   -2.6090 H         1 <0>         0.0000
     20 H3          1.5086    3.6510   -5.1727 H         1 <0>         0.0000
     21 H4         -4.4837    6.6784   -2.6405 H         1 <0>         0.0000
     22 H5          0.2227    7.2050   -3.1626 H         1 <0>         0.0000
     23 H6         -3.1977    3.1245   -4.6509 H         1 <0>         0.0000
     24 H7          4.4277    5.4664   -4.7860 H         1 <0>         0.0000
     25 H8          3.4112    4.0571   -4.3310 H         1 <0>         0.0000
     26 H9          3.1311    4.8998   -5.8924 H         1 <0>         0.0000
     27 H10        -7.2451    4.7437   -3.1569 H         1 <0>         0.0000
     28 H11        -6.0211    5.3951   -2.0151 H         1 <0>         0.0000
     29 H12        -6.2858    6.1960   -3.6010 H         1 <0>         0.0000
     30 H13         2.4342    6.9262   -4.7071 H         1 <0>         0.0000
     31 H14         4.0772    7.4584   -1.7922 H         1 <0>         0.0000
@<TRIPOS>BOND
     1    1    3 ar
     2    1    8 ar
     3    2    4 ar
     4    2    7 ar
     5    3    9 ar
     6    4   10 ar
     7    5    7 ar
     8    5    9 ar
     9    6    8 ar
    10    6   10 ar
    11    7    8 ar
    12    9   14 1
    13   10   17 1
    14   11   14 1
    15   11   15 2
    16   11   16 1
    17   12   14 1
    18   13   17 1
    19    1   18 1
    20    2   19 1
    21    3   20 1
    22    4   21 1
    23    5   22 1
    24    6   23 1
    25   12   24 1
    26   12   25 1
    27   12   26 1
    28   13   27 1
    29   13   28 1
    30   13   29 1
    31   14   30 1
    32   16   31 1
@<TRIPOS>MOLECULE
naproxen_9
   31    32     0     0     0
SMALL
NO_CHARGES

@<TRIPOS>ATOM
      1 C1         -1.3453    5.6443   -4.7530 C.ar      1 <0>         0.0000
      2 C2         -0.7305    2.3539   -3.1482 C.ar      1 <0>         0.0000
      3 C3         -0.0684    6.2056   -4.7212 C.ar      1 <0>         0.0000
      4 C4         -2.0074    1.7927   -3.1800 C.ar      1 <0>         0.0000
      5 C5          0.7799    4.2176   -3.6462 C.ar      1 <0>         0.0000
      6 C6         -2.8558    3.7807   -4.2549 C.ar      1 <0>         0.0000
      7 C7         -0.4986    3.6371   -3.6698 C.ar      1 <0>         0.0000
      8 C8         -1.5772    4.3611   -4.2314 C.ar      1 <0>         0.0000
      9 C9          0.9921    5.4936   -4.1689 C.ar      1 <0>         0.0000
     10 C10        -3.0680    2.5047   -3.7323 C.ar      1 <0>         0.0000
     11 C11         2.8724    6.3073   -2.7086 C.2       1 <0>         0.0000
     12 C12         3.4059    5.2961   -4.9356 C.3       1 <0>         0.0000
     13 C13        -5.3543    2.7412   -4.3428 C.3       1 <0>         0.0000
     14 C14         2.3564    6.0951   -4.1362 C.3       1 <0>         0.0000
     15 O1          2.2545    5.9993   -1.6977 O.2       1 <0>         0.0000
     16 O2          4.1000    6.8895   -2.6659 O.3       1 <0>         0.0000
     17 O3         -4.3136    1.9566   -3.7624 O.3       1 <0>         0.0000
     18 H1         -2.1639    6.2023   -5.1831 H         1 <0>         0.0000
     19 H2          0.0880    1.7958   -2.7182 H         1 <0>         0.0000
     20 H3          0.0971    7.1933   -5.1256 H         1 <0>         0.0000
     21 H4         -2.1730    0.8050   -2.7757 H         1 <0>         0.0000
     22 H5          1.6074    3.6706   -3.2190 H         1 <0>         0.0000
     23 H6         -3.6833    4.3277   -4.6820 H         1 <0>         0.0000
     24 H7          4.3818    5.7986   -4.8650 H         1 <0>         0.0000
     25 H8          3.4860    4.2800   -4.5220 H         1 <0>         0.0000
     26 H9          3.0982    5.2395   -5.9902 H         1 <0>         0.0000
     27 H10        -6.3012    2.1828   -4.3023 H         1 <0>         0.0000
     28 H11        -5.4595    3.6822   -3.7829 H         1 <0>         0.0000
     29 H12        -5.1046    2.9639   -5.3906 H         1 <0>         0.0000
     30 H13         2.2893    7.0886   -4.6035 H         1 <0>         0.0000
     31 H14         4.3660    7.0026   -1.7610 H         1 <0>         0.0000
@<TRIPOS>BOND
     1    1    3 ar
     2    1    8 ar
     3    2    4 ar
     4    2    7 ar
     5    3    9 ar
     6    4   10 ar
     7    5    7 ar
     8    5    9 ar
     9    6    8 ar
    10    6   10 ar
    11    7    8 ar
    12    9   14 1
    13   10   17 1
    14   11   14 1
    15   11   15 2
    16   11   16 1
    17   12   14 1
    18   13   17 1
    19    1   18 1
    20    2   19 1
    21    3   20 1
    22    4   21 1
    23    5   22 1
    24    6   23 1
    25   12   24 1
    26   12   25 1
    27   12   26 1
    28   13   27 1
    29   13   28 1
    30   13   29 1
    31   14   30 1
    32   16   31 1
@<TRIPOS>MOLECULE
naproxen_9
   31    32     0     0     0
SMALL
NO_CHARGES

@<TRIPOS>ATOM
      1 C1         -1.3543    5.6620   -4.7477 C.ar      1 <0>         0.0000
      2 C2         -0.7565    2.3757   -3.1281 C.ar      1 <0>         0.0000
      3 C3         -0.0744    6.2166   -4.7190 C.ar      1 <0>         0.0000
      4 C4         -2.0364    1.8212   -3.1568 C.ar      1 <0>         0.0000
      5 C5          0.7637    4.2290   -3.6352 C.ar      1 <0>         0.0000
      6 C6         -2.8746    3.8088   -4.2405 C.ar      1 <0>         0.0000
      7 C7         -0.5180    3.6553   -3.6556 C.ar      1 <0>         0.0000
      8 C8         -1.5928    4.3825   -4.2202 C.ar      1 <0>         0.0000
      9 C9          0.9826    5.5014   -4.1639 C.ar      1 <0>         0.0000
     10 C10        -3.0934    2.5364   -3.7120 C.ar      1 <0>         0.0000
     11 C11         2.8677    6.3118   -2.7080 C.2       1 <0>         0.0000
     12 C12         3.3949    5.2875   -4.9306 C.3       1 <0>         0.0000
     13 C13        -4.4961    0.6907   -3.1814 C.3       1 <0>         0.0000
     14 C14         2.3500    6.0957   -4.1345 C.3       1 <0>         0.0000
     15 O1          2.2486    6.0117   -1.6955 O.2       1 <0>         0.0000
     16 O2          4.0985    6.8875   -2.6685 O.3       1 <0>         0.0000
     17 O3         -4.3419    1.9948   -3.7391 O.3       1 <0>         0.0000
     18 H1         -2.1700    6.2224   -5.1800 H         1 <0>         0.0000
     19 H2          0.0592    1.8153   -2.6958 H         1 <0>         0.0000
     20 H3          0.0962    7.2015   -5.1280 H         1 <0>         0.0000
     21 H4         -2.2070    0.8363   -2.7479 H         1 <0>         0.0000
     22 H5          1.5885    3.6796   -3.2058 H         1 <0>         0.0000
     23 H6         -3.6993    4.3583   -4.6698 H         1 <0>         0.0000
     24 H7          4.3735    5.7851   -4.8627 H         1 <0>         0.0000
     25 H8          3.4698    4.2729   -4.5123 H         1 <0>         0.0000
     26 H9          3.0864    5.2277   -5.9848 H         1 <0>         0.0000
     27 H10        -5.5466    0.3761   -3.2682 H         1 <0>         0.0000
     28 H11        -3.8549   -0.0187   -3.7252 H         1 <0>         0.0000
     29 H12        -4.2054    0.7089   -2.1207 H         1 <0>         0.0000
     30 H13         2.2880    7.0875   -4.6063 H         1 <0>         0.0000
     31 H14         4.3655    7.0034   -1.7642 H         1 <0>         0.0000
@<TRIPOS>BOND
     1    1    3 ar
     2    1    8 ar
     3    2    4 ar
     4    2    7 ar
     5    3    9 ar
     6    4   10 ar
     7    5    7 ar
     8    5    9 ar
     9    6    8 ar
    10    6   10 ar
    11    7    8 ar
    12    9   14 1
    13   10   17 1
    14   11   14 1
    15   11   15 2
    16   11   16 1
    17   12   14 1
    18   13   17 1
    19    1   18 1
    20    2   19 1
    21    3   20 1
    22    4   21 1
    23    5   22 1
    24    6   23 1
    25   12   24 1
    26   12   25 1
    27   12   26 1
    28   13   27 1
    29   13   28 1
    30   13   29 1
    31   14   30 1
    32   16   31 1
@<TRIPOS>MOLECULE
naproxen_9
   31    32     0     0     0
SMALL
NO_CHARGES

@<TRIPOS>ATOM
      1 C1         -0.3982    3.5127   -3.5601 C.ar      1 <0>         0.0000
      2 C2         -2.4958    6.0972   -5.2032 C.ar      1 <0>         0.0000
      3 C3          0.8524    4.1312   -3.5685 C.ar      1 <0>         0.0000
      4 C4         -3.7464    5.4787   -5.1948 C.ar      1 <0>         0.0000
      5 C5         -0.1069    6.0584   -4.6609 C.ar      1 <0>         0.0000
      6 C6         -2.7871    3.5514   -4.1025 C.ar      1 <0>         0.0000
      7 C7         -1.3731    5.4509   -4.6610 C.ar      1 <0>         0.0000
      8 C8         -1.5209    4.1590   -4.1024 C.ar      1 <0>         0.0000
      9 C9          0.9977    5.4016   -4.1179 C.ar      1 <0>         0.0000
     10 C10        -3.8917    4.2082   -4.6455 C.ar      1 <0>         0.0000
     11 C11         2.8711    6.3225   -2.7135 C.2       1 <0>         0.0000
     12 C12         3.4013    5.2927   -4.9328 C.3       1 <0>         0.0000
     13 C13        -5.1895    2.3034   -4.0595 C.3       1 <0>         0.0000
     14 C14         2.3352    6.0612   -4.1256 C.3       1 <0>         0.0000
     15 O1          2.2882    6.0077   -1.6840 O.2       1 <0>         0.0000
     16 O2          4.0731    6.9573   -2.7079 O.3       1 <0>         0.0000
     17 O3         -5.1120    3.6053   -4.6382 O.3       1 <0>         0.0000
     18 H1         -0.5039    2.5267   -3.1322 H         1 <0>         0.0000
     19 H2         -2.3902    7.0832   -5.6311 H         1 <0>         0.0000
     20 H3          1.7082    3.6237   -3.1484 H         1 <0>         0.0000
     21 H4         -4.6022    5.9861   -5.6149 H         1 <0>         0.0000
     22 H5          0.0130    7.0441   -5.0857 H         1 <0>         0.0000
     23 H6         -2.9069    2.5657   -3.6779 H         1 <0>         0.0000
     24 H7          4.3559    5.8377   -4.8924 H         1 <0>         0.0000
     25 H8          3.5337    4.2890   -4.5026 H         1 <0>         0.0000
     26 H9          3.0744    5.2029   -5.9792 H         1 <0>         0.0000
     27 H10        -6.2246    1.9361   -4.1192 H         1 <0>         0.0000
     28 H11        -4.5254    1.6187   -4.6074 H         1 <0>         0.0000
     29 H12        -4.8778    2.3516   -3.0057 H         1 <0>         0.0000
     30 H13         2.2156    7.0420   -4.6092 H         1 <0>         0.0000
     31 H14         4.3528    7.0989   -1.8111 H         1 <0>         0.0000
@<TRIPOS>BOND
     1    1    3 ar
     2    1    8 ar
     3    2    4 ar
     4    2    7 ar
     5    3    9 ar
     6    4   10 ar
     7    5    7 ar
     8    5    9 ar
     9    6    8 ar
    10    6   10 ar
    11    7    8 ar
    12    9   14 1
    13   10   17 1
    14   11   14 1
    15   11   15 2
    16   11   16 1
    17   12   14 1
    18   13   17 1
    19    1   18 1
    20    2   19 1
    21    3   20 1
    22    4   21 1
    23    5   22 1
    24    6   23 1
    25   12   24 1
    26   12   25 1
    27   12   26 1
    28   13   27 1
    29   13   28 1
    30   13   29 1
    31   14   30 1
    32   16   31 1
@<TRIPOS>MOLECULE
naproxen_9
   31    32     0     0     0
SMALL
NO_CHARGES

@<TRIPOS>ATOM
      1 C1         -1.3218    5.9112   -3.5726 C.ar      1 <0>         0.0000
      2 C2         -1.0153    2.6030   -5.2283 C.ar      1 <0>         0.0000
      3 C3          0.0042    6.3450   -3.5833 C.ar      1 <0>         0.0000
      4 C4         -2.3413    2.1692   -5.2175 C.ar      1 <0>         0.0000
      5 C5          0.6651    4.3011   -4.6848 C.ar      1 <0>         0.0000
      6 C6         -3.0022    4.2131   -4.1159 C.ar      1 <0>         0.0000
      7 C7         -0.6644    3.8485   -4.6827 C.ar      1 <0>         0.0000
      8 C8         -1.6727    4.6656   -4.1182 C.ar      1 <0>         0.0000
      9 C9          0.9957    5.5415   -4.1384 C.ar      1 <0>         0.0000
     10 C10        -3.3328    2.9728   -4.6624 C.ar      1 <0>         0.0000
     11 C11         2.9368    6.3307   -2.7458 C.2       1 <0>         0.0000
     12 C12         3.3835    5.0231   -4.8333 C.3       1 <0>         0.0000
     13 C13        -4.8950    1.2706   -5.2263 C.3       1 <0>         0.0000
     14 C14         2.4125    6.0070   -4.1493 C.3       1 <0>         0.0000
     15 O1          2.4392    7.1615   -1.9969 O.2       1 <0>         0.0000
     16 O2          4.0332    5.6031   -2.4048 O.3       1 <0>         0.0000
     17 O3         -4.6262    2.5486   -4.6519 O.3       1 <0>         0.0000
     18 H1         -2.0862    6.5398   -3.1403 H         1 <0>         0.0000
     19 H2         -0.2509    1.9744   -5.6607 H         1 <0>         0.0000
     20 H3          0.2614    7.3050   -3.1606 H         1 <0>         0.0000
     21 H4         -2.5985    1.2093   -5.6402 H         1 <0>         0.0000
     22 H5          1.4395    3.6826   -5.1139 H         1 <0>         0.0000
     23 H6         -3.7765    4.8316   -3.6867 H         1 <0>         0.0000
     24 H7          4.4038    5.4330   -4.8024 H         1 <0>         0.0000
     25 H8          3.3599    4.0583   -4.3054 H         1 <0>         0.0000
     26 H9          3.0791    4.8758   -5.8800 H         1 <0>         0.0000
     27 H10        -5.9708    1.0535   -5.1518 H         1 <0>         0.0000
     28 H11        -4.5942    1.2737   -6.2844 H         1 <0>         0.0000
     29 H12        -4.3271    0.4990   -4.6859 H         1 <0>         0.0000
     30 H13         2.4472    6.9421   -4.7276 H         1 <0>         0.0000
     31 H14         4.3178    5.8484   -1.5323 H         1 <0>         0.0000
@<TRIPOS>BOND
     1    1    3 ar
     2    1    8 ar
     3    2    4 ar
     4    2    7 ar
     5    3    9 ar
     6    4   10 ar
     7    5    7 ar
     8    5    9 ar
     9    6    8 ar
    10    6   10 ar
    11    7    8 ar
    12    9   14 1
    13   10   17 1
    14   11   14 1
    15   11   15 2
    16   11   16 1
    17   12   14 1
    18   13   17 1
    19    1   18 1
    20    2   19 1
    21    3   20 1
    22    4   21 1
    23    5   22 1
    24    6   23 1
    25   12   24 1
    26   12   25 1
    27   12   26 1
    28   13   27 1
    29   13   28 1
    30   13   29 1
    31   14   30 1
    32   16   31 1
@<TRIPOS>MOLECULE
naproxen_9
   31    32     0     0     0
SMALL
NO_CHARGES

@<TRIPOS>ATOM
      1 C1         -0.3997    3.5119   -3.5465 C.ar      1 <0>         0.0000
      2 C2         -2.5057    6.0961   -5.1794 C.ar      1 <0>         0.0000
      3 C3          0.8504    4.1312   -3.5596 C.ar      1 <0>         0.0000
      4 C4         -3.7558    5.4768   -5.1663 C.ar      1 <0>         0.0000
      5 C5         -0.1145    6.0584   -4.6469 C.ar      1 <0>         0.0000
      6 C6         -2.7909    3.5495   -4.0791 C.ar      1 <0>         0.0000
      7 C7         -1.3803    5.4502   -4.6422 C.ar      1 <0>         0.0000
      8 C8         -1.5251    4.1578   -4.0837 C.ar      1 <0>         0.0000
      9 C9          0.9927    5.4020   -4.1087 C.ar      1 <0>         0.0000
     10 C10        -3.8981    4.2059   -4.6172 C.ar      1 <0>         0.0000
     11 C11         2.8713    6.3232   -2.7114 C.2       1 <0>         0.0000
     12 C12         3.3930    5.2951   -4.9335 C.3       1 <0>         0.0000
     13 C13        -6.2074    4.3286   -5.1720 C.3       1 <0>         0.0000
     14 C14         2.3297    6.0625   -4.1215 C.3       1 <0>         0.0000
     15 O1          2.2927    6.0074   -1.6798 O.2       1 <0>         0.0000
     16 O2          4.0729    6.9587   -2.7104 O.3       1 <0>         0.0000
     17 O3         -5.1180    3.6022   -4.6052 O.3       1 <0>         0.0000
     18 H1         -0.5031    2.5256   -3.1187 H         1 <0>         0.0000
     19 H2         -2.4023    7.0824   -5.6071 H         1 <0>         0.0000
     20 H3          1.7082    3.6240   -3.1433 H         1 <0>         0.0000
     21 H4         -4.6136    5.9840   -5.5826 H         1 <0>         0.0000
     22 H5          0.0031    7.0445   -5.0715 H         1 <0>         0.0000
     23 H6         -2.9084    2.5634   -3.6545 H         1 <0>         0.0000
     24 H7          4.3475    5.8406   -4.8967 H         1 <0>         0.0000
     25 H8          3.5278    4.2912   -4.5044 H         1 <0>         0.0000
     26 H9          3.0620    5.2057   -5.9787 H         1 <0>         0.0000
     27 H10        -7.1268    3.7293   -5.0971 H         1 <0>         0.0000
     28 H11        -6.3409    5.2743   -4.6262 H         1 <0>         0.0000
     29 H12        -5.9945    4.5426   -6.2297 H         1 <0>         0.0000
     30 H13         2.2076    7.0434   -4.6040 H         1 <0>         0.0000
     31 H14         4.3561    7.1000   -1.8146 H         1 <0>         0.0000
@<TRIPOS>BOND
     1    1    3 ar
     2    1    8 ar
     3    2    4 ar
     4    2    7 ar
     5    3    9 ar
     6    4   10 ar
     7    5    7 ar
     8    5    9 ar
     9    6    8 ar
    10    6   10 ar
    11    7    8 ar
    12    9   14 1
    13   10   17 1
    14   11   14 1
    15   11   15 2
    16   11   16 1
    17   12   14 1
    18   13   17 1
    19    1   18 1
    20    2   19 1
    21    3   20 1
    22    4   21 1
    23    5   22 1
    24    6   23 1
    25   12   24 1
    26   12   25 1
    27   12   26 1
    28   13   27 1
    29   13   28 1
    30   13   29 1
    31   14   30 1
    32   16   31 1
@<TRIPOS>MOLECULE
naproxen_9
   31    32     0     0     0
SMALL
NO_CHARGES

@<TRIPOS>ATOM
      1 C1         -1.3362    5.8445   -3.5814 C.ar      1 <0>         0.0000
      2 C2         -0.9725    2.5558   -5.2643 C.ar      1 <0>         0.0000
      3 C3         -0.0172    6.2992   -3.5843 C.ar      1 <0>         0.0000
      4 C4         -2.2915    2.1011   -5.2614 C.ar      1 <0>         0.0000
      5 C5          0.6792    4.2754   -4.7010 C.ar      1 <0>         0.0000
      6 C6         -2.9879    4.1248   -4.1445 C.ar      1 <0>         0.0000
      7 C7         -0.6430    3.8020   -4.7069 C.ar      1 <0>         0.0000
      8 C8         -1.6657    4.5982   -4.1387 C.ar      1 <0>         0.0000
      9 C9          0.9886    5.5162   -4.1430 C.ar      1 <0>         0.0000
     10 C10        -3.2973    2.8841   -4.7026 C.ar      1 <0>         0.0000
     11 C11         2.9127    6.3239   -2.7376 C.2       1 <0>         0.0000
     12 C12         3.3863    5.0414   -4.8347 C.3       1 <0>         0.0000
     13 C13        -5.5642    3.2926   -4.1109 C.3       1 <0>         0.0000
     14 C14         2.3978    6.0040   -4.1455 C.3       1 <0>         0.0000
     15 O1          2.3997    7.1403   -1.9832 O.2       1 <0>         0.0000
     16 O2          4.0194    5.6108   -2.3994 O.3       1 <0>         0.0000
     17 O3         -4.5838    2.4396   -4.6998 O.3       1 <0>         0.0000
     18 H1         -2.1118    6.4572   -3.1462 H         1 <0>         0.0000
     19 H2         -0.1970    1.9430   -5.6995 H         1 <0>         0.0000
     20 H3          0.2235    7.2594   -3.1526 H         1 <0>         0.0000
     21 H4         -2.5323    1.1409   -5.6931 H         1 <0>         0.0000
     22 H5          1.4646    3.6729   -5.1329 H         1 <0>         0.0000
     23 H6         -3.7733    4.7273   -3.7125 H         1 <0>         0.0000
     24 H7          4.3999    5.4671   -4.7971 H         1 <0>         0.0000
     25 H8          3.3763    4.0719   -4.3151 H         1 <0>         0.0000
     26 H9          3.0875    4.8984   -5.8836 H         1 <0>         0.0000
     27 H10        -6.5530    2.8150   -4.1756 H         1 <0>         0.0000
     28 H11        -5.3105    3.4684   -3.0551 H         1 <0>         0.0000
     29 H12        -5.5849    4.2525   -4.6478 H         1 <0>         0.0000
     30 H13         2.4195    6.9445   -4.7157 H         1 <0>         0.0000
     31 H14         4.2975    5.8531   -1.5239 H         1 <0>         0.0000
@<TRIPOS>BOND
     1    1    3 ar
     2    1    8 ar
     3    2    4 ar
     4    2    7 ar
     5    3    9 ar
     6    4   10 ar
     7    5    7 ar
     8    5    9 ar
     9    6    8 ar
    10    6   10 ar
    11    7    8 ar
    12    9   14 1
    13   10   17 1
    14   11   14 1
    15   11   15 2
    16   11   16 1
    17   12   14 1
    18   13   17 1
    19    1   18 1
    20    2   19 1
    21    3   20 1
    22    4   21 1
    23    5   22 1
    24    6   23 1
    25   12   24 1
    26   12   25 1
    27   12   26 1
    28   13   27 1
    29   13   28 1
    30   13   29 1
    31   14   30 1
    32   16   31 1
@<TRIPOS>MOLECULE
naproxen_12
   31    32     0     0     0
SMALL
NO_CHARGES

@<TRIPOS>ATOM
      1 C1         -2.3301    1.5877    1.4233 C.ar      1 <0>         0.0000
      2 C2         -3.9048    4.2513    3.4740 C.ar      1 <0>         0.0000
      3 C3         -2.6022    2.0413    0.1323 C.ar      1 <0>         0.0000
      4 C4         -3.6326    3.7977    4.7650 C.ar      1 <0>         0.0000
      5 C5         -3.7403    3.9639    1.0464 C.ar      1 <0>         0.0000
      6 C6         -2.4946    1.8750    3.8508 C.ar      1 <0>         0.0000
      7 C7         -3.4753    3.5224    2.3530 C.ar      1 <0>         0.0000
      8 C8         -2.7596    2.3165    2.5442 C.ar      1 <0>         0.0000
      9 C9         -3.3060    3.2271   -0.0558 C.ar      1 <0>         0.0000
     10 C10        -2.9288    2.6118    4.9530 C.ar      1 <0>         0.0000
     11 C11        -2.9801    2.8130   -2.5159 C.2       1 <0>         0.0000
     12 C12        -5.0995    3.8879   -1.7289 C.3       1 <0>         0.0000
     13 C13        -3.1372    2.9707    7.2947 C.3       1 <0>         0.0000
     14 C14        -3.5956    3.7105   -1.4365 C.3       1 <0>         0.0000
     15 O1         -3.5542    1.8653   -3.0364 O.2       1 <0>         0.0000
     16 O2         -1.7089    3.1665   -2.8428 O.3       1 <0>         0.0000
     17 O3         -2.6642    2.1697    6.2129 O.3       1 <0>         0.0000
     18 H1         -1.7834    0.6667    1.5620 H         1 <0>         0.0000
     19 H2         -4.4514    5.1724    3.3353 H         1 <0>         0.0000
     20 H3         -2.2665    1.4717   -0.7218 H         1 <0>         0.0000
     21 H4         -3.9683    4.3672    5.6190 H         1 <0>         0.0000
     22 H5         -4.2860    4.8833    0.8933 H         1 <0>         0.0000
     23 H6         -1.9490    0.9556    4.0039 H         1 <0>         0.0000
     24 H7         -5.2334    4.2449   -2.7608 H         1 <0>         0.0000
     25 H8         -5.6133    2.9231   -1.6053 H         1 <0>         0.0000
     26 H9         -5.5249    4.6222   -1.0290 H         1 <0>         0.0000
     27 H10        -2.8568    2.5012    8.2492 H         1 <0>         0.0000
     28 H11        -2.6873    3.9726    7.2330 H         1 <0>         0.0000
     29 H12        -4.2323    3.0562    7.2360 H         1 <0>         0.0000
     30 H13        -3.1317    4.7023   -1.5421 H         1 <0>         0.0000
     31 H14        -1.3764    2.5753   -3.5079 H         1 <0>         0.0000
@<TRIPOS>BOND
     1    1    3 ar
     2    1    8 ar
     3    2    4 ar
     4    2    7 ar
     5    3    9 ar
     6    4   10 ar
     7    5    7 ar
     8    5    9 ar
     9    6    8 ar
    10    6   10 ar
    11    7    8 ar
    12    9   14 1
    13   10   17 1
    14   11   14 1
    15   11   15 2
    16   11   16 1
    17   12   14 1
    18   13   17 1
    19    1   18 1
    20    2   19 1
    21    3   20 1
    22    4   21 1
    23    5   22 1
    24    6   23 1
    25   12   24 1
    26   12   25 1
    27   12   26 1
    28   13   27 1
    29   13   28 1
    30   13   29 1
    31   14   30 1
    32   16   31 1
@<TRIPOS>MOLECULE
naproxen_12
   31    32     0     0     0
SMALL
NO_CHARGES

@<TRIPOS>ATOM
      1 C1         -2.3408    1.6236    1.4421 C.ar      1 <0>         0.0000
      2 C2         -3.9228    4.3070    3.4611 C.ar      1 <0>         0.0000
      3 C3         -2.6092    2.0640    0.1458 C.ar      1 <0>         0.0000
      4 C4         -3.6543    3.8666    4.7574 C.ar      1 <0>         0.0000
      5 C5         -3.7509    3.9952    1.0370 C.ar      1 <0>         0.0000
      6 C6         -2.5127    1.9353    3.8661 C.ar      1 <0>         0.0000
      7 C7         -3.4896    3.5671    2.3488 C.ar      1 <0>         0.0000
      8 C8         -2.7740    2.3635    2.5544 C.ar      1 <0>         0.0000
      9 C9         -3.3129    3.2475   -0.0564 C.ar      1 <0>         0.0000
     10 C10        -2.9506    2.6830    4.9595 C.ar      1 <0>         0.0000
     11 C11        -2.9795    2.8087   -2.5112 C.2       1 <0>         0.0000
     12 C12        -5.1017    3.8906   -1.7415 C.3       1 <0>         0.0000
     13 C13        -1.9639    1.0327    6.3591 C.3       1 <0>         0.0000
     14 C14        -3.5986    3.7168   -1.4428 C.3       1 <0>         0.0000
     15 O1         -3.5516    1.8556   -3.0239 O.2       1 <0>         0.0000
     16 O2         -1.7075    3.1595   -2.8378 O.3       1 <0>         0.0000
     17 O3         -2.6895    2.2538    6.2246 O.3       1 <0>         0.0000
     18 H1         -1.7942    0.7043    1.5917 H         1 <0>         0.0000
     19 H2         -4.4694    5.2264    3.3114 H         1 <0>         0.0000
     20 H3         -2.2707    1.4860   -0.7015 H         1 <0>         0.0000
     21 H4         -3.9928    4.4445    5.6046 H         1 <0>         0.0000
     22 H5         -4.2965    4.9127    0.8730 H         1 <0>         0.0000
     23 H6         -1.9672    1.0177    4.0301 H         1 <0>         0.0000
     24 H7         -5.2326    4.2370   -2.7773 H         1 <0>         0.0000
     25 H8         -5.6154    2.9269   -1.6096 H         1 <0>         0.0000
     26 H9         -5.5295    4.6317   -1.0503 H         1 <0>         0.0000
     27 H10        -1.8233    0.8048    7.4260 H         1 <0>         0.0000
     28 H11        -2.5267    0.2174    5.8812 H         1 <0>         0.0000
     29 H12        -0.9821    1.1344    5.8735 H         1 <0>         0.0000
     30 H13        -3.1349    4.7077   -1.5569 H         1 <0>         0.0000
     31 H14        -1.3727    2.5618   -3.4959 H         1 <0>         0.0000
@<TRIPOS>BOND
     1    1    3 ar
     2    1    8 ar
     3    2    4 ar
     4    2    7 ar
     5    3    9 ar
     6    4   10 ar
     7    5    7 ar
     8    5    9 ar
     9    6    8 ar
    10    6   10 ar
    11    7    8 ar
    12    9   14 1
    13   10   17 1
    14   11   14 1
    15   11   15 2
    16   11   16 1
    17   12   14 1
    18   13   17 1
    19    1   18 1
    20    2   19 1
    21    3   20 1
    22    4   21 1
    23    5   22 1
    24    6   23 1
    25   12   24 1
    26   12   25 1
    27   12   26 1
    28   13   27 1
    29   13   28 1
    30   13   29 1
    31   14   30 1
    32   16   31 1
@<TRIPOS>MOLECULE
naproxen_12
   31    32     0     0     0
SMALL
NO_CHARGES

@<TRIPOS>ATOM
      1 C1         -3.5934    1.5820    1.6622 C.ar      1 <0>         0.0000
      2 C2         -1.6268    4.4218    3.0215 C.ar      1 <0>         0.0000
      3 C3         -3.8392    2.0193    0.3603 C.ar      1 <0>         0.0000
      4 C4         -1.3811    3.9843    4.3233 C.ar      1 <0>         0.0000
      5 C5         -2.6200    4.0533    0.8123 C.ar      1 <0>         0.0000
      6 C6         -2.6003    1.9504    3.8714 C.ar      1 <0>         0.0000
      7 C7         -2.3631    3.6289    2.1262 C.ar      1 <0>         0.0000
      8 C8         -2.8571    2.3748    2.5575 C.ar      1 <0>         0.0000
      9 C9         -3.3534    3.2526   -0.0638 C.ar      1 <0>         0.0000
     10 C10        -1.8669    2.7510    4.7474 C.ar      1 <0>         0.0000
     11 C11        -2.9801    2.8077   -2.5118 C.2       1 <0>         0.0000
     12 C12        -5.1149    3.8906   -1.7792 C.3       1 <0>         0.0000
     13 C13        -2.1541    1.0516    6.3861 C.3       1 <0>         0.0000
     14 C14        -3.6168    3.7182   -1.4558 C.3       1 <0>         0.0000
     15 O1         -3.5436    1.8530   -3.0312 O.2       1 <0>         0.0000
     16 O2         -1.7031    3.1582   -2.8186 O.3       1 <0>         0.0000
     17 O3         -1.6271    2.3253    6.0179 O.3       1 <0>         0.0000
     18 H1         -3.9733    0.6238    1.9847 H         1 <0>         0.0000
     19 H2         -1.2468    5.3799    2.6989 H         1 <0>         0.0000
     20 H3         -4.4068    1.4004   -0.3188 H         1 <0>         0.0000
     21 H4         -0.8134    4.6032    5.0024 H         1 <0>         0.0000
     22 H5         -2.2460    5.0093    0.4766 H         1 <0>         0.0000
     23 H6         -2.9744    0.9945    4.2070 H         1 <0>         0.0000
     24 H7         -5.2292    4.2344   -2.8179 H         1 <0>         0.0000
     25 H8         -5.6304    2.9271   -1.6533 H         1 <0>         0.0000
     26 H9         -5.5541    4.6333   -1.0969 H         1 <0>         0.0000
     27 H10        -1.8889    0.8326    7.4309 H         1 <0>         0.0000
     28 H11        -3.2490    1.0636    6.2806 H         1 <0>         0.0000
     29 H12        -1.7310    0.2764    5.7303 H         1 <0>         0.0000
     30 H13        -3.1516    4.7090   -1.5650 H         1 <0>         0.0000
     31 H14        -1.3575    2.5589   -3.4697 H         1 <0>         0.0000
@<TRIPOS>BOND
     1    1    3 ar
     2    1    8 ar
     3    2    4 ar
     4    2    7 ar
     5    3    9 ar
     6    4   10 ar
     7    5    7 ar
     8    5    9 ar
     9    6    8 ar
    10    6   10 ar
    11    7    8 ar
    12    9   14 1
    13   10   17 1
    14   11   14 1
    15   11   15 2
    16   11   16 1
    17   12   14 1
    18   13   17 1
    19    1   18 1
    20    2   19 1
    21    3   20 1
    22    4   21 1
    23    5   22 1
    24    6   23 1
    25   12   24 1
    26   12   25 1
    27   12   26 1
    28   13   27 1
    29   13   28 1
    30   13   29 1
    31   14   30 1
    32   16   31 1
@<TRIPOS>MOLECULE
naproxen_12
   31    32     0     0     0
SMALL
NO_CHARGES

@<TRIPOS>ATOM
      1 C1         -2.2786    3.8007    2.0619 C.ar      1 <0>         0.0000
      2 C2         -3.9265    0.4787    2.2317 C.ar      1 <0>         0.0000
      3 C3         -2.5656    4.1803    0.7505 C.ar      1 <0>         0.0000
      4 C4         -3.6396    0.0991    3.5432 C.ar      1 <0>         0.0000
      5 C5         -3.7573    2.1086    0.4103 C.ar      1 <0>         0.0000
      6 C6         -2.4478    2.1707    3.8833 C.ar      1 <0>         0.0000
      7 C7         -3.4778    1.7103    1.7277 C.ar      1 <0>         0.0000
      8 C8         -2.7274    2.5690    2.5659 C.ar      1 <0>         0.0000
      9 C9         -3.3035    3.3359   -0.0738 C.ar      1 <0>         0.0000
     10 C10        -2.9016    0.9435    4.3674 C.ar      1 <0>         0.0000
     11 C11        -2.9825    2.8047   -2.5120 C.2       1 <0>         0.0000
     12 C12        -5.1181    3.8776   -1.7669 C.3       1 <0>         0.0000
     13 C13        -1.8611    1.4854    6.4361 C.3       1 <0>         0.0000
     14 C14        -3.6095    3.7436   -1.4752 C.3       1 <0>         0.0000
     15 O1         -3.5411    1.8213   -2.9806 O.2       1 <0>         0.0000
     16 O2         -1.7201    3.1653   -2.8640 O.3       1 <0>         0.0000
     17 O3         -2.6216    0.5722    5.6467 O.3       1 <0>         0.0000
     18 H1         -1.7055    4.4608    2.6961 H         1 <0>         0.0000
     19 H2         -4.4997   -0.1814    1.5975 H         1 <0>         0.0000
     20 H3         -2.2148    5.1301    0.3746 H         1 <0>         0.0000
     21 H4         -3.9903   -0.8507    3.9191 H         1 <0>         0.0000
     22 H5         -4.3293    1.4582   -0.2347 H         1 <0>         0.0000
     23 H6         -1.8756    2.8212    4.5283 H         1 <0>         0.0000
     24 H7         -5.2641    4.1795   -2.8145 H         1 <0>         0.0000
     25 H8         -5.6126    2.9107   -1.5918 H         1 <0>         0.0000
     26 H9         -5.5538    4.6380   -1.1021 H         1 <0>         0.0000
     27 H10        -1.7083    1.0636    7.4405 H         1 <0>         0.0000
     28 H11        -0.8852    1.6580    5.9587 H         1 <0>         0.0000
     29 H12        -2.4032    2.4390    6.5177 H         1 <0>         0.0000
     30 H13        -3.1654    4.7374   -1.6333 H         1 <0>         0.0000
     31 H14        -1.3798    2.5477   -3.5006 H         1 <0>         0.0000
@<TRIPOS>BOND
     1    1    3 ar
     2    1    8 ar
     3    2    4 ar
     4    2    7 ar
     5    3    9 ar
     6    4   10 ar
     7    5    7 ar
     8    5    9 ar
     9    6    8 ar
    10    6   10 ar
    11    7    8 ar
    12    9   14 1
    13   10   17 1
    14   11   14 1
    15   11   15 2
    16   11   16 1
    17   12   14 1
    18   13   17 1
    19    1   18 1
    20    2   19 1
    21    3   20 1
    22    4   21 1
    23    5   22 1
    24    6   23 1
    25   12   24 1
    26   12   25 1
    27   12   26 1
    28   13   27 1
    29   13   28 1
    30   13   29 1
    31   14   30 1
    32   16   31 1
@<TRIPOS>MOLECULE
naproxen_12
   31    32     0     0     0
SMALL
NO_CHARGES

@<TRIPOS>ATOM
      1 C1         -3.5786    1.5632    1.6587 C.ar      1 <0>         0.0000
      2 C2         -1.6145    4.4012    3.0256 C.ar      1 <0>         0.0000
      3 C3         -3.8291    2.0061    0.3596 C.ar      1 <0>         0.0000
      4 C4         -1.3640    3.9582    4.3246 C.ar      1 <0>         0.0000
      5 C5         -2.6134    4.0408    0.8176 C.ar      1 <0>         0.0000
      6 C6         -2.5798    1.9236    3.8667 C.ar      1 <0>         0.0000
      7 C7         -2.3516    3.6109    2.1287 C.ar      1 <0>         0.0000
      8 C8         -2.8415    2.3535    2.5556 C.ar      1 <0>         0.0000
      9 C9         -3.3475    3.2425   -0.0601 C.ar      1 <0>         0.0000
     10 C10        -1.8457    2.7218    4.7444 C.ar      1 <0>         0.0000
     11 C11        -2.9804    2.8100   -2.5112 C.2       1 <0>         0.0000
     12 C12        -5.1155    3.8845   -1.7674 C.3       1 <0>         0.0000
     13 C13        -0.8450    3.1559    6.8576 C.3       1 <0>         0.0000
     14 C14        -3.6160    3.7141   -1.4492 C.3       1 <0>         0.0000
     15 O1         -3.5431    1.8564   -3.0335 O.2       1 <0>         0.0000
     16 O2         -1.7050    3.1649   -2.8202 O.3       1 <0>         0.0000
     17 O3         -1.6012    2.2906    6.0121 O.3       1 <0>         0.0000
     18 H1         -3.9553    0.6027    1.9778 H         1 <0>         0.0000
     19 H2         -1.2377    5.3617    2.7065 H         1 <0>         0.0000
     20 H3         -4.3973    1.3891   -0.3207 H         1 <0>         0.0000
     21 H4         -0.7958    4.5752    5.0050 H         1 <0>         0.0000
     22 H5         -2.2426    4.9992    0.4854 H         1 <0>         0.0000
     23 H6         -2.9507    0.9652    4.1989 H         1 <0>         0.0000
     24 H7         -5.2336    4.2329   -2.8040 H         1 <0>         0.0000
     25 H8         -5.6283    2.9192   -1.6444 H         1 <0>         0.0000
     26 H9         -5.5544    4.6230   -1.0803 H         1 <0>         0.0000
     27 H10        -0.7221    2.6884    7.8457 H         1 <0>         0.0000
     28 H11         0.1442    3.3329    6.4103 H         1 <0>         0.0000
     29 H12        -1.3740    4.1140    6.9687 H         1 <0>         0.0000
     30 H13        -3.1535    4.7065   -1.5550 H         1 <0>         0.0000
     31 H14        -1.3600    2.5695   -3.4751 H         1 <0>         0.0000
@<TRIPOS>BOND
     1    1    3 ar
     2    1    8 ar
     3    2    4 ar
     4    2    7 ar
     5    3    9 ar
     6    4   10 ar
     7    5    7 ar
     8    5    9 ar
     9    6    8 ar
    10    6   10 ar
    11    7    8 ar
    12    9   14 1
    13   10   17 1
    14   11   14 1
    15   11   15 2
    16   11   16 1
    17   12   14 1
    18   13   17 1
    19    1   18 1
    20    2   19 1
    21    3   20 1
    22    4   21 1
    23    5   22 1
    24    6   23 1
    25   12   24 1
    26   12   25 1
    27   12   26 1
    28   13   27 1
    29   13   28 1
    30   13   29 1
    31   14   30 1
    32   16   31 1
@<TRIPOS>MOLECULE
naproxen_12
   31    32     0     0     0
SMALL
NO_CHARGES

@<TRIPOS>ATOM
      1 C1         -2.2677    3.7850    2.0639 C.ar      1 <0>         0.0000
      2 C2         -3.9153    0.4625    2.2257 C.ar      1 <0>         0.0000
      3 C3         -2.5576    4.1693    0.7545 C.ar      1 <0>         0.0000
      4 C4         -3.6253    0.0783    3.5352 C.ar      1 <0>         0.0000
      5 C5         -3.7502    2.0989    0.4097 C.ar      1 <0>         0.0000
      6 C6         -2.4327    2.1487    3.8799 C.ar      1 <0>         0.0000
      7 C7         -3.4677    1.6959    1.7251 C.ar      1 <0>         0.0000
      8 C8         -2.7153    2.5516    2.5645 C.ar      1 <0>         0.0000
      9 C9         -3.2975    3.3279   -0.0711 C.ar      1 <0>         0.0000
     10 C10        -2.8855    0.9197    4.3607 C.ar      1 <0>         0.0000
     11 C11        -2.9822    2.8053   -2.5118 C.2       1 <0>         0.0000
     12 C12        -5.1159    3.8756   -1.7581 C.3       1 <0>         0.0000
     13 C13        -3.0951   -0.7251    6.0655 C.3       1 <0>         0.0000
     14 C14        -3.6067    3.7405   -1.4704 C.3       1 <0>         0.0000
     15 O1         -3.5418    1.8236   -2.9827 O.2       1 <0>         0.0000
     16 O2         -1.7205    3.1671   -2.8655 O.3       1 <0>         0.0000
     17 O3         -2.6026    0.5439    5.6380 O.3       1 <0>         0.0000
     18 H1         -1.6931    4.4429    2.6991 H         1 <0>         0.0000
     19 H2         -4.4900   -0.1953    1.5905 H         1 <0>         0.0000
     20 H3         -2.2077    5.1204    0.3812 H         1 <0>         0.0000
     21 H4         -3.9752   -0.8728    3.9085 H         1 <0>         0.0000
     22 H5         -4.3238    1.4507   -0.2363 H         1 <0>         0.0000
     23 H6         -1.8590    2.7968    4.5258 H         1 <0>         0.0000
     24 H7         -5.2644    4.1812   -2.8043 H         1 <0>         0.0000
     25 H8         -5.6101    2.9081   -1.5852 H         1 <0>         0.0000
     26 H9         -5.5501    4.6336   -1.0896 H         1 <0>         0.0000
     27 H10        -2.7969   -0.9020    7.1094 H         1 <0>         0.0000
     28 H11        -4.1925   -0.7364    5.9908 H         1 <0>         0.0000
     29 H12        -2.6758   -1.5155    5.4256 H         1 <0>         0.0000
     30 H13        -3.1629    4.7349   -1.6259 H         1 <0>         0.0000
     31 H14        -1.3817    2.5518   -3.5051 H         1 <0>         0.0000
@<TRIPOS>BOND
     1    1    3 ar
     2    1    8 ar
     3    2    4 ar
     4    2    7 ar
     5    3    9 ar
     6    4   10 ar
     7    5    7 ar
     8    5    9 ar
     9    6    8 ar
    10    6   10 ar
    11    7    8 ar
    12    9   14 1
    13   10   17 1
    14   11   14 1
    15   11   15 2
    16   11   16 1
    17   12   14 1
    18   13   17 1
    19    1   18 1
    20    2   19 1
    21    3   20 1
    22    4   21 1
    23    5   22 1
    24    6   23 1
    25   12   24 1
    26   12   25 1
    27   12   26 1
    28   13   27 1
    29   13   28 1
    30   13   29 1
    31   14   30 1
    32   16   31 1
@<TRIPOS>MOLECULE
naproxen_12
   31    32     0     0     0
SMALL
NO_CHARGES

@<TRIPOS>ATOM
      1 C1         -1.5429    3.1911    1.6415 C.ar      1 <0>         0.0000
      2 C2         -4.8052    2.2086    3.1153 C.ar      1 <0>         0.0000
      3 C3         -1.9175    3.5025    0.3341 C.ar      1 <0>         0.0000
      4 C4         -4.4307    1.8973    4.4227 C.ar      1 <0>         0.0000
      5 C5         -4.2099    2.9585    0.8601 C.ar      1 <0>         0.0000
      6 C6         -2.1382    2.4412    3.8967 C.ar      1 <0>         0.0000
      7 C7         -3.8508    2.6408    2.1801 C.ar      1 <0>         0.0000
      8 C8         -2.4974    2.7589    2.5767 C.ar      1 <0>         0.0000
      9 C9         -3.2484    3.3864   -0.0558 C.ar      1 <0>         0.0000
     10 C10        -3.0997    2.0133    4.8126 C.ar      1 <0>         0.0000
     11 C11        -2.8796    2.8996   -2.4965 C.2       1 <0>         0.0000
     12 C12        -5.1598    3.5787   -1.7179 C.3       1 <0>         0.0000
     13 C13        -3.7676    1.2771    6.9731 C.3       1 <0>         0.0000
     14 C14        -3.6469    3.7201   -1.4536 C.3       1 <0>         0.0000
     15 O1         -1.6608    2.8948   -2.6116 O.2       1 <0>         0.0000
     16 O2         -3.6929    2.1699   -3.3051 O.3       1 <0>         0.0000
     17 O3         -2.7350    1.7088    6.0882 O.3       1 <0>         0.0000
     18 H1         -0.5084    3.2834    1.9374 H         1 <0>         0.0000
     19 H2         -5.8398    2.1163    2.8194 H         1 <0>         0.0000
     20 H3         -1.1741    3.8339   -0.3758 H         1 <0>         0.0000
     21 H4         -5.1740    1.5659    5.1326 H         1 <0>         0.0000
     22 H5         -5.2409    2.8706    0.5508 H         1 <0>         0.0000
     23 H6         -1.1072    2.5290    4.2059 H         1 <0>         0.0000
     24 H7         -5.3758    3.8402   -2.7643 H         1 <0>         0.0000
     25 H8         -5.4696    2.5404   -1.5281 H         1 <0>         0.0000
     26 H9         -5.7133    4.2546   -1.0494 H         1 <0>         0.0000
     27 H10        -3.3379    1.0659    7.9634 H         1 <0>         0.0000
     28 H11        -4.5267    2.0680    7.0641 H         1 <0>         0.0000
     29 H12        -4.2346    0.3647    6.5740 H         1 <0>         0.0000
     30 H13        -3.3911    4.7760   -1.6256 H         1 <0>         0.0000
     31 H14        -3.1670    1.6889   -3.9332 H         1 <0>         0.0000
@<TRIPOS>BOND
     1    1    3 ar
     2    1    8 ar
     3    2    4 ar
     4    2    7 ar
     5    3    9 ar
     6    4   10 ar
     7    5    7 ar
     8    5    9 ar
     9    6    8 ar
    10    6   10 ar
    11    7    8 ar
    12    9   14 1
    13   10   17 1
    14   11   14 1
    15   11   15 2
    16   11   16 1
    17   12   14 1
    18   13   17 1
    19    1   18 1
    20    2   19 1
    21    3   20 1
    22    4   21 1
    23    5   22 1
    24    6   23 1
    25   12   24 1
    26   12   25 1
    27   12   26 1
    28   13   27 1
    29   13   28 1
    30   13   29 1
    31   14   30 1
    32   16   31 1
@<TRIPOS>MOLECULE
naproxen_12
   31    32     0     0     0
SMALL
NO_CHARGES

@<TRIPOS>ATOM
      1 C1         -1.5751    3.1662    1.6568 C.ar      1 <0>         0.0000
      2 C2         -4.8528    2.1902    3.1005 C.ar      1 <0>         0.0000
      3 C3         -1.9382    3.4853    0.3481 C.ar      1 <0>         0.0000
      4 C4         -4.4897    1.8711    4.4093 C.ar      1 <0>         0.0000
      5 C5         -4.2368    2.9482    0.8536 C.ar      1 <0>         0.0000
      6 C6         -2.1910    2.4080    3.9037 C.ar      1 <0>         0.0000
      7 C7         -3.8893    2.6229    2.1748 C.ar      1 <0>         0.0000
      8 C8         -2.5386    2.7335    2.5825 C.ar      1 <0>         0.0000
      9 C9         -3.2665    3.3765   -0.0528 C.ar      1 <0>         0.0000
     10 C10        -3.1613    1.9798    4.8101 C.ar      1 <0>         0.0000
     11 C11        -2.8807    2.8998   -2.4928 C.2       1 <0>         0.0000
     12 C12        -5.1641    3.5846   -1.7287 C.3       1 <0>         0.0000
     13 C13        -1.4295    1.8018    6.4302 C.3       1 <0>         0.0000
     14 C14        -3.6527    3.7184   -1.4520 C.3       1 <0>         0.0000
     15 O1         -1.6611    2.8905   -2.5984 O.2       1 <0>         0.0000
     16 O2         -3.6907    2.1772   -3.3111 O.3       1 <0>         0.0000
     17 O3         -2.8078    1.6678    6.0870 O.3       1 <0>         0.0000
     18 H1         -0.5426    3.2529    1.9612 H         1 <0>         0.0000
     19 H2         -5.8854    2.1035    2.7962 H         1 <0>         0.0000
     20 H3         -1.1880    3.8169   -0.3545 H         1 <0>         0.0000
     21 H4         -5.2399    1.5394    5.1118 H         1 <0>         0.0000
     22 H5         -5.2657    2.8660    0.5359 H         1 <0>         0.0000
     23 H6         -1.1621    2.4901    4.2214 H         1 <0>         0.0000
     24 H7         -5.3709    3.8519   -2.7755 H         1 <0>         0.0000
     25 H8         -5.4796    2.5467   -1.5462 H         1 <0>         0.0000
     26 H9         -5.7201    4.2595   -1.0613 H         1 <0>         0.0000
     27 H10        -1.2843    1.5196    7.4835 H         1 <0>         0.0000
     28 H11        -0.8261    1.1436    5.7879 H         1 <0>         0.0000
     29 H12        -1.1151    2.8457    6.2838 H         1 <0>         0.0000
     30 H13        -3.3913    4.7741   -1.6170 H         1 <0>         0.0000
     31 H14        -3.1618    1.6971   -3.9374 H         1 <0>         0.0000
@<TRIPOS>BOND
     1    1    3 ar
     2    1    8 ar
     3    2    4 ar
     4    2    7 ar
     5    3    9 ar
     6    4   10 ar
     7    5    7 ar
     8    5    9 ar
     9    6    8 ar
    10    6   10 ar
    11    7    8 ar
    12    9   14 1
    13   10   17 1
    14   11   14 1
    15   11   15 2
    16   11   16 1
    17   12   14 1
    18   13   17 1
    19    1   18 1
    20    2   19 1
    21    3   20 1
    22    4   21 1
    23    5   22 1
    24    6   23 1
    25   12   24 1
    26   12   25 1
    27   12   26 1
    28   13   27 1
    29   13   28 1
    30   13   29 1
    31   14   30 1
    32   16   31 1
@<TRIPOS>MOLECULE
naproxen_12
   31    32     0     0     0
SMALL
NO_CHARGES

@<TRIPOS>ATOM
      1 C1         -3.5074    3.6788    2.3110 C.ar      1 <0>         0.0000
      2 C2         -1.6268    0.5299    1.7385 C.ar      1 <0>         0.0000
      3 C3         -3.7714    4.0803    1.0012 C.ar      1 <0>         0.0000
      4 C4         -1.3628    0.1285    3.0483 C.ar      1 <0>         0.0000
      5 C5         -2.6155    2.1310    0.1695 C.ar      1 <0>         0.0000
      6 C6         -2.5186    2.0779    3.8800 C.ar      1 <0>         0.0000
      7 C7         -2.3408    1.7116    1.4813 C.ar      1 <0>         0.0000
      8 C8         -2.7934    2.4971    2.5681 C.ar      1 <0>         0.0000
      9 C9         -3.3263    3.3079   -0.0675 C.ar      1 <0>         0.0000
     10 C10        -1.8079    0.9010    4.1170 C.ar      1 <0>         0.0000
     11 C11        -2.9822    2.8056   -2.5087 C.2       1 <0>         0.0000
     12 C12        -5.1128    3.8960   -1.7750 C.3       1 <0>         0.0000
     13 C13        -2.0347    1.3475    6.4419 C.3       1 <0>         0.0000
     14 C14        -3.6098    3.7385   -1.4669 C.3       1 <0>         0.0000
     15 O1         -3.5474    1.8360   -2.9976 O.2       1 <0>         0.0000
     16 O2         -1.7109    3.1545   -2.8403 O.3       1 <0>         0.0000
     17 O3         -1.5495    0.5088    5.3946 O.3       1 <0>         0.0000
     18 H1         -3.8558    4.2830    3.1356 H         1 <0>         0.0000
     19 H2         -1.2785   -0.0743    0.9139 H         1 <0>         0.0000
     20 H3         -4.3215    4.9911    0.8165 H         1 <0>         0.0000
     21 H4         -0.8127   -0.7824    3.2331 H         1 <0>         0.0000
     22 H5         -2.2730    1.5363   -0.6645 H         1 <0>         0.0000
     23 H6         -2.8611    2.6726    4.7139 H         1 <0>         0.0000
     24 H7         -5.2420    4.2140   -2.8201 H         1 <0>         0.0000
     25 H8         -5.6218    2.9333   -1.6192 H         1 <0>         0.0000
     26 H9         -5.5469    4.6529   -1.1052 H         1 <0>         0.0000
     27 H10        -1.7583    0.9164    7.4154 H         1 <0>         0.0000
     28 H11        -1.5903    2.3490    6.3451 H         1 <0>         0.0000
     29 H12        -3.1299    1.4240    6.3725 H         1 <0>         0.0000
     30 H13        -3.1510    4.7285   -1.6059 H         1 <0>         0.0000
     31 H14        -1.3707    2.5413   -3.4812 H         1 <0>         0.0000
@<TRIPOS>BOND
     1    1    3 ar
     2    1    8 ar
     3    2    4 ar
     4    2    7 ar
     5    3    9 ar
     6    4   10 ar
     7    5    7 ar
     8    5    9 ar
     9    6    8 ar
    10    6   10 ar
    11    7    8 ar
    12    9   14 1
    13   10   17 1
    14   11   14 1
    15   11   15 2
    16   11   16 1
    17   12   14 1
    18   13   17 1
    19    1   18 1
    20    2   19 1
    21    3   20 1
    22    4   21 1
    23    5   22 1
    24    6   23 1
    25   12   24 1
    26   12   25 1
    27   12   26 1
    28   13   27 1
    29   13   28 1
    30   13   29 1
    31   14   30 1
    32   16   31 1
@<TRIPOS>MOLECULE
naproxen_12
   31    32     0     0     0
SMALL
NO_CHARGES

@<TRIPOS>ATOM
      1 C1         -3.4894    3.6666    2.3174 C.ar      1 <0>         0.0000
      2 C2         -1.6063    0.5222    1.7284 C.ar      1 <0>         0.0000
      3 C3         -3.7600    4.0709    1.0098 C.ar      1 <0>         0.0000
      4 C4         -1.3357    0.1179    3.0360 C.ar      1 <0>         0.0000
      5 C5         -2.6047    2.1256    0.1680 C.ar      1 <0>         0.0000
      6 C6         -2.4909    2.0633    3.8779 C.ar      1 <0>         0.0000
      7 C7         -2.3234    1.7034    1.4775 C.ar      1 <0>         0.0000
      8 C8         -2.7723    2.4854    2.5683 C.ar      1 <0>         0.0000
      9 C9         -3.3185    3.3019   -0.0628 C.ar      1 <0>         0.0000
     10 C10        -1.7772    0.8870    4.1087 C.ar      1 <0>         0.0000
     11 C11        -2.9847    2.8064   -2.5068 C.2       1 <0>         0.0000
     12 C12        -5.1137    3.8914   -1.7607 C.3       1 <0>         0.0000
     13 C13        -0.7778   -0.7199    5.5492 C.3       1 <0>         0.0000
     14 C14        -3.6091    3.7356   -1.4598 C.3       1 <0>         0.0000
     15 O1         -3.5506    1.8370   -2.9955 O.2       1 <0>         0.0000
     16 O2         -1.7155    3.1582   -2.8434 O.3       1 <0>         0.0000
     17 O3         -1.5123    0.4920    5.3841 O.3       1 <0>         0.0000
     18 H1         -3.8350    4.2681    3.1451 H         1 <0>         0.0000
     19 H2         -1.2607   -0.0793    0.9007 H         1 <0>         0.0000
     20 H3         -4.3125    4.9813    0.8299 H         1 <0>         0.0000
     21 H4         -0.7833   -0.7925    3.2160 H         1 <0>         0.0000
     22 H5         -2.2650    1.5336   -0.6690 H         1 <0>         0.0000
     23 H6         -2.8305    2.6554    4.7148 H         1 <0>         0.0000
     24 H7         -5.2482    4.2118   -2.8044 H         1 <0>         0.0000
     25 H8         -5.6204    2.9275   -1.6050 H         1 <0>         0.0000
     26 H9         -5.5460    4.6459   -1.0870 H         1 <0>         0.0000
     27 H10        -0.6350   -0.9196    6.6214 H         1 <0>         0.0000
     28 H11        -1.3350   -1.5512    5.0926 H         1 <0>         0.0000
     29 H12         0.2029   -0.6236    5.0604 H         1 <0>         0.0000
     30 H13        -3.1525    4.7267   -1.5984 H         1 <0>         0.0000
     31 H14        -1.3773    2.5471   -3.4873 H         1 <0>         0.0000
@<TRIPOS>BOND
     1    1    3 ar
     2    1    8 ar
     3    2    4 ar
     4    2    7 ar
     5    3    9 ar
     6    4   10 ar
     7    5    7 ar
     8    5    9 ar
     9    6    8 ar
    10    6   10 ar
    11    7    8 ar
    12    9   14 1
    13   10   17 1
    14   11   14 1
    15   11   15 2
    16   11   16 1
    17   12   14 1
    18   13   17 1
    19    1   18 1
    20    2   19 1
    21    3   20 1
    22    4   21 1
    23    5   22 1
    24    6   23 1
    25   12   24 1
    26   12   25 1
    27   12   26 1
    28   13   27 1
    29   13   28 1
    30   13   29 1
    31   14   30 1
    32   16   31 1
@<TRIPOS>MOLECULE
naproxen_13
   31    32     0     0     0
SMALL
NO_CHARGES

@<TRIPOS>ATOM
      1 C1         -3.1709    1.4519   -0.3108 C.ar      1 <0>         0.0000
      2 C2         -2.6185    1.5205    3.3593 C.ar      1 <0>         0.0000
      3 C3         -1.8584    1.4303   -0.7834 C.ar      1 <0>         0.0000
      4 C4         -3.9310    1.5421    3.8319 C.ar      1 <0>         0.0000
      5 C5         -1.0390    1.4683    1.4870 C.ar      1 <0>         0.0000
      6 C6         -4.7503    1.5042    1.5614 C.ar      1 <0>         0.0000
      7 C7         -2.3537    1.4903    1.9804 C.ar      1 <0>         0.0000
      8 C8         -3.4356    1.4821    1.0681 C.ar      1 <0>         0.0000
      9 C9         -0.7945    1.4384    0.1138 C.ar      1 <0>         0.0000
     10 C10        -4.9949    1.5340    2.9347 C.ar      1 <0>         0.0000
     11 C11         1.6430    1.5014    0.7337 C.2       1 <0>         0.0000
     12 C12         0.9277    0.1911   -1.2758 C.3       1 <0>         0.0000
     13 C13        -6.4543    1.5863    4.8116 C.3       1 <0>         0.0000
     14 C14         0.6077    1.4148   -0.3933 C.3       1 <0>         0.0000
     15 O1          2.1346    0.5316    1.2964 O.2       1 <0>         0.0000
     16 O2          1.9655    2.7796    1.0651 O.3       1 <0>         0.0000
     17 O3         -6.2751    1.5557    3.3965 O.3       1 <0>         0.0000
     18 H1         -3.9918    1.4454   -1.0126 H         1 <0>         0.0000
     19 H2         -1.7976    1.5269    4.0611 H         1 <0>         0.0000
     20 H3         -1.6678    1.4072   -1.8462 H         1 <0>         0.0000
     21 H4         -4.1216    1.5652    4.8947 H         1 <0>         0.0000
     22 H5         -0.2088    1.4745    2.1777 H         1 <0>         0.0000
     23 H6         -5.5805    1.4981    0.8707 H         1 <0>         0.0000
     24 H7          1.9743    0.2433   -1.6104 H         1 <0>         0.0000
     25 H8          0.7741   -0.7301   -0.6947 H         1 <0>         0.0000
     26 H9          0.2626    0.1871   -2.1520 H         1 <0>         0.0000
     27 H10        -7.5291    1.6013    5.0454 H         1 <0>         0.0000
     28 H11        -5.9944    0.6926    5.2587 H         1 <0>         0.0000
     29 H12        -5.9772    2.4884    5.2221 H         1 <0>         0.0000
     30 H13         0.7449    2.3061   -1.0232 H         1 <0>         0.0000
     31 H14         2.6026    2.7735    1.7697 H         1 <0>         0.0000
@<TRIPOS>BOND
     1    1    3 ar
     2    1    8 ar
     3    2    4 ar
     4    2    7 ar
     5    3    9 ar
     6    4   10 ar
     7    5    7 ar
     8    5    9 ar
     9    6    8 ar
    10    6   10 ar
    11    7    8 ar
    12    9   14 1
    13   10   17 1
    14   11   14 1
    15   11   15 2
    16   11   16 1
    17   12   14 1
    18   13   17 1
    19    1   18 1
    20    2   19 1
    21    3   20 1
    22    4   21 1
    23    5   22 1
    24    6   23 1
    25   12   24 1
    26   12   25 1
    27   12   26 1
    28   13   27 1
    29   13   28 1
    30   13   29 1
    31   14   30 1
    32   16   31 1
@<TRIPOS>MOLECULE
naproxen_13
   31    32     0     0     0
SMALL
NO_CHARGES

@<TRIPOS>ATOM
      1 C1         -3.1792    1.4509   -0.2670 C.ar      1 <0>         0.0000
      2 C2         -2.5916    1.5086    3.3979 C.ar      1 <0>         0.0000
      3 C3         -1.8712    1.4317   -0.7522 C.ar      1 <0>         0.0000
      4 C4         -3.8996    1.5278    3.8831 C.ar      1 <0>         0.0000
      5 C5         -1.0302    1.4634    1.5104 C.ar      1 <0>         0.0000
      6 C6         -4.7406    1.4962    1.6205 C.ar      1 <0>         0.0000
      7 C7         -2.3401    1.4829    2.0165 C.ar      1 <0>         0.0000
      8 C8         -3.4307    1.4766    1.1145 C.ar      1 <0>         0.0000
      9 C9         -0.7988    1.4380    0.1348 C.ar      1 <0>         0.0000
     10 C10        -4.9720    1.5216    2.9961 C.ar      1 <0>         0.0000
     11 C11         1.6445    1.5010    0.7316 C.2       1 <0>         0.0000
     12 C12         0.9110    0.1963   -1.2751 C.3       1 <0>         0.0000
     13 C13        -7.2991    1.5330    2.5058 C.3       1 <0>         0.0000
     14 C14         0.5985    1.4171   -0.3857 C.3       1 <0>         0.0000
     15 O1          2.1422    0.5299    1.2865 O.2       1 <0>         0.0000
     16 O2          1.9691    2.7785    1.0638 O.3       1 <0>         0.0000
     17 O3         -6.2478    1.5408    3.4703 O.3       1 <0>         0.0000
     18 H1         -4.0067    1.4459   -0.9609 H         1 <0>         0.0000
     19 H2         -1.7641    1.5136    4.0919 H         1 <0>         0.0000
     20 H3         -1.6909    1.4120   -1.8168 H         1 <0>         0.0000
     21 H4         -4.0800    1.5475    4.9477 H         1 <0>         0.0000
     22 H5         -0.1934    1.4682    2.1931 H         1 <0>         0.0000
     23 H6         -5.5774    1.4915    0.9378 H         1 <0>         0.0000
     24 H7          1.9543    0.2504   -1.6194 H         1 <0>         0.0000
     25 H8          0.7637   -0.7268   -0.6953 H         1 <0>         0.0000
     26 H9          0.2375    0.1945   -2.1448 H         1 <0>         0.0000
     27 H10        -8.2706    1.5503    3.0214 H         1 <0>         0.0000
     28 H11        -7.2109    2.4193    1.8603 H         1 <0>         0.0000
     29 H12        -7.2263    0.6234    1.8915 H         1 <0>         0.0000
     30 H13         0.7290    2.3104   -1.0142 H         1 <0>         0.0000
     31 H14         2.6130    2.7707    1.7623 H         1 <0>         0.0000
@<TRIPOS>BOND
     1    1    3 ar
     2    1    8 ar
     3    2    4 ar
     4    2    7 ar
     5    3    9 ar
     6    4   10 ar
     7    5    7 ar
     8    5    9 ar
     9    6    8 ar
    10    6   10 ar
    11    7    8 ar
    12    9   14 1
    13   10   17 1
    14   11   14 1
    15   11   15 2
    16   11   16 1
    17   12   14 1
    18   13   17 1
    19    1   18 1
    20    2   19 1
    21    3   20 1
    22    4   21 1
    23    5   22 1
    24    6   23 1
    25   12   24 1
    26   12   25 1
    27   12   26 1
    28   13   27 1
    29   13   28 1
    30   13   29 1
    31   14   30 1
    32   16   31 1
@<TRIPOS>MOLECULE
naproxen_13
   31    32     0     0     0
SMALL
NO_CHARGES

@<TRIPOS>ATOM
      1 C1         -2.9410    2.5526    0.2922 C.ar      1 <0>         0.0000
      2 C2         -3.0346   -0.5399    2.3436 C.ar      1 <0>         0.0000
      3 C3         -1.6368    2.5124   -0.2016 C.ar      1 <0>         0.0000
      4 C4         -4.3388   -0.4996    2.8374 C.ar      1 <0>         0.0000
      5 C5         -1.2487    0.4481    0.9881 C.ar      1 <0>         0.0000
      6 C6         -4.7269    1.5647    1.6477 C.ar      1 <0>         0.0000
      7 C7         -2.5584    0.4724    1.4945 C.ar      1 <0>         0.0000
      8 C8         -3.4172    1.5404    1.1413 C.ar      1 <0>         0.0000
      9 C9         -0.7923    1.4622    0.1456 C.ar      1 <0>         0.0000
     10 C10        -5.1834    0.5506    2.4901 C.ar      1 <0>         0.0000
     11 C11         1.6554    1.5073    0.7259 C.2       1 <0>         0.0000
     12 C12         0.8956    0.1864   -1.2602 C.3       1 <0>         0.0000
     13 C13        -7.2668    1.6941    2.5767 C.3       1 <0>         0.0000
     14 C14         0.6014    1.4208   -0.3835 C.3       1 <0>         0.0000
     15 O1          2.1468    0.5378    1.2893 O.2       1 <0>         0.0000
     16 O2          1.9952    2.7853    1.0407 O.3       1 <0>         0.0000
     17 O3         -6.4555    0.5893    2.9728 O.3       1 <0>         0.0000
     18 H1         -3.5911    3.3705    0.0187 H         1 <0>         0.0000
     19 H2         -2.3845   -1.3578    2.6171 H         1 <0>         0.0000
     20 H3         -1.2824    3.2968   -0.8539 H         1 <0>         0.0000
     21 H4         -4.6933   -1.2841    3.4896 H         1 <0>         0.0000
     22 H5         -0.5880   -0.3640    1.2536 H         1 <0>         0.0000
     23 H6         -5.3875    2.3768    1.3822 H         1 <0>         0.0000
     24 H7          1.9371    0.2256   -1.6119 H         1 <0>         0.0000
     25 H8          0.7427   -0.7282   -0.6685 H         1 <0>         0.0000
     26 H9          0.2165    0.1811   -2.1255 H         1 <0>         0.0000
     27 H10        -8.2626    1.6013    3.0347 H         1 <0>         0.0000
     28 H11        -6.7967    2.6316    2.9085 H         1 <0>         0.0000
     29 H12        -7.3665    1.7015    1.4812 H         1 <0>         0.0000
     30 H13         0.7368    2.3051   -1.0235 H         1 <0>         0.0000
     31 H14         2.6435    2.7792    1.7351 H         1 <0>         0.0000
@<TRIPOS>BOND
     1    1    3 ar
     2    1    8 ar
     3    2    4 ar
     4    2    7 ar
     5    3    9 ar
     6    4   10 ar
     7    5    7 ar
     8    5    9 ar
     9    6    8 ar
    10    6   10 ar
    11    7    8 ar
    12    9   14 1
    13   10   17 1
    14   11   14 1
    15   11   15 2
    16   11   16 1
    17   12   14 1
    18   13   17 1
    19    1   18 1
    20    2   19 1
    21    3   20 1
    22    4   21 1
    23    5   22 1
    24    6   23 1
    25   12   24 1
    26   12   25 1
    27   12   26 1
    28   13   27 1
    29   13   28 1
    30   13   29 1
    31   14   30 1
    32   16   31 1
@<TRIPOS>MOLECULE
naproxen_13
   31    32     0     0     0
SMALL
NO_CHARGES

@<TRIPOS>ATOM
      1 C1         -2.4944    0.3227    1.5420 C.ar      1 <0>         0.0000
      2 C2         -3.9023    3.4516    0.1249 C.ar      1 <0>         0.0000
      3 C3         -1.2017    0.3438    1.0175 C.ar      1 <0>         0.0000
      4 C4         -5.1950    3.4304    0.6494 C.ar      1 <0>         0.0000
      5 C5         -1.6891    2.4257   -0.1031 C.ar      1 <0>         0.0000
      6 C6         -4.7076    1.3485    1.7699 C.ar      1 <0>         0.0000
      7 C7         -2.9940    2.4207    0.4160 C.ar      1 <0>         0.0000
      8 C8         -3.4027    1.3535    1.2508 C.ar      1 <0>         0.0000
      9 C9         -0.7999    1.3933    0.1966 C.ar      1 <0>         0.0000
     10 C10        -5.5969    2.3809    1.4703 C.ar      1 <0>         0.0000
     11 C11         1.6571    1.5060    0.7263 C.2       1 <0>         0.0000
     12 C12         0.8987    0.2154   -1.2801 C.3       1 <0>         0.0000
     13 C13        -7.2037    1.2557    2.8148 C.3       1 <0>         0.0000
     14 C14         0.5824    1.4142   -0.3628 C.3       1 <0>         0.0000
     15 O1          2.1930    0.5387    1.2514 O.2       1 <0>         0.0000
     16 O2          1.9605    2.7857    1.0701 O.3       1 <0>         0.0000
     17 O3         -6.8584    2.3609    1.9811 O.3       1 <0>         0.0000
     18 H1         -2.7997   -0.4947    2.1784 H         1 <0>         0.0000
     19 H2         -3.5970    4.2690   -0.5115 H         1 <0>         0.0000
     20 H3         -0.5125   -0.4548    1.2488 H         1 <0>         0.0000
     21 H4         -5.8843    4.2291    0.4181 H         1 <0>         0.0000
     22 H5         -1.3707    3.2370   -0.7409 H         1 <0>         0.0000
     23 H6         -5.0261    0.5371    2.4076 H         1 <0>         0.0000
     24 H7          1.9303    0.2999   -1.6523 H         1 <0>         0.0000
     25 H8          0.7897   -0.7200   -0.7115 H         1 <0>         0.0000
     26 H9          0.2013    0.2108   -2.1307 H         1 <0>         0.0000
     27 H10        -8.2435    1.3646    3.1568 H         1 <0>         0.0000
     28 H11        -7.1013    0.3205    2.2449 H         1 <0>         0.0000
     29 H12        -6.5323    1.2297    3.6858 H         1 <0>         0.0000
     30 H13         0.6739    2.3201   -0.9801 H         1 <0>         0.0000
     31 H14         2.6237    2.7826    1.7502 H         1 <0>         0.0000
@<TRIPOS>BOND
     1    1    3 ar
     2    1    8 ar
     3    2    4 ar
     4    2    7 ar
     5    3    9 ar
     6    4   10 ar
     7    5    7 ar
     8    5    9 ar
     9    6    8 ar
    10    6   10 ar
    11    7    8 ar
    12    9   14 1
    13   10   17 1
    14   11   14 1
    15   11   15 2
    16   11   16 1
    17   12   14 1
    18   13   17 1
    19    1   18 1
    20    2   19 1
    21    3   20 1
    22    4   21 1
    23    5   22 1
    24    6   23 1
    25   12   24 1
    26   12   25 1
    27   12   26 1
    28   13   27 1
    29   13   28 1
    30   13   29 1
    31   14   30 1
    32   16   31 1
@<TRIPOS>MOLECULE
naproxen_13
   31    32     0     0     0
SMALL
NO_CHARGES

@<TRIPOS>ATOM
      1 C1         -2.9414    2.5492    0.2713 C.ar      1 <0>         0.0000
      2 C2         -3.0448   -0.5403    2.3266 C.ar      1 <0>         0.0000
      3 C3         -1.6348    2.5084   -0.2160 C.ar      1 <0>         0.0000
      4 C4         -4.3514   -0.4995    2.8139 C.ar      1 <0>         0.0000
      5 C5         -1.2523    0.4459    0.9786 C.ar      1 <0>         0.0000
      6 C6         -4.7339    1.5631    1.6194 C.ar      1 <0>         0.0000
      7 C7         -2.5645    0.4707    1.4785 C.ar      1 <0>         0.0000
      8 C8         -3.4217    1.5381    1.1195 C.ar      1 <0>         0.0000
      9 C9         -0.7918    1.4588    0.1370 C.ar      1 <0>         0.0000
     10 C10        -5.1944    0.5501    2.4610 C.ar      1 <0>         0.0000
     11 C11         1.6530    1.5050    0.7293 C.2       1 <0>         0.0000
     12 C12         0.9031    0.1812   -1.2586 C.3       1 <0>         0.0000
     13 C13        -6.8752   -0.4772    3.7933 C.3       1 <0>         0.0000
     14 C14         0.6044    1.4168   -0.3852 C.3       1 <0>         0.0000
     15 O1          2.1416    0.5364    1.2965 O.2       1 <0>         0.0000
     16 O2          1.9910    2.7835    1.0439 O.3       1 <0>         0.0000
     17 O3         -6.4689    0.5894    2.9373 O.3       1 <0>         0.0000
     18 H1         -3.5902    3.3666   -0.0066 H         1 <0>         0.0000
     19 H2         -2.3960   -1.3578    2.6046 H         1 <0>         0.0000
     20 H3         -1.2772    3.2920   -0.8676 H         1 <0>         0.0000
     21 H4         -4.7091   -1.2831    3.4655 H         1 <0>         0.0000
     22 H5         -0.5928   -0.3657    1.2486 H         1 <0>         0.0000
     23 H6         -5.3933    2.3747    1.3495 H         1 <0>         0.0000
     24 H7          1.9464    0.2200   -1.6052 H         1 <0>         0.0000
     25 H8          0.7474   -0.7326   -0.6664 H         1 <0>         0.0000
     26 H9          0.2283    0.1746   -2.1273 H         1 <0>         0.0000
     27 H10        -7.9192   -0.3220    4.1031 H         1 <0>         0.0000
     28 H11        -6.7910   -1.4323    3.2541 H         1 <0>         0.0000
     29 H12        -6.2284   -0.5001    4.6827 H         1 <0>         0.0000
     30 H13         0.7429    2.3003   -1.0258 H         1 <0>         0.0000
     31 H14         2.6358    2.7785    1.7415 H         1 <0>         0.0000
@<TRIPOS>BOND
     1    1    3 ar
     2    1    8 ar
     3    2    4 ar
     4    2    7 ar
     5    3    9 ar
     6    4   10 ar
     7    5    7 ar
     8    5    9 ar
     9    6    8 ar
    10    6   10 ar
    11    7    8 ar
    12    9   14 1
    13   10   17 1
    14   11   14 1
    15   11   15 2
    16   11   16 1
    17   12   14 1
    18   13   17 1
    19    1   18 1
    20    2   19 1
    21    3   20 1
    22    4   21 1
    23    5   22 1
    24    6   23 1
    25   12   24 1
    26   12   25 1
    27   12   26 1
    28   13   27 1
    29   13   28 1
    30   13   29 1
    31   14   30 1
    32   16   31 1
@<TRIPOS>MOLECULE
naproxen_13
   31    32     0     0     0
SMALL
NO_CHARGES

@<TRIPOS>ATOM
      1 C1         -2.4969    0.3055    1.5250 C.ar      1 <0>         0.0000
      2 C2         -3.9098    3.4340    0.1123 C.ar      1 <0>         0.0000
      3 C3         -1.2022    0.3326    1.0058 C.ar      1 <0>         0.0000
      4 C4         -5.2045    3.4068    0.6315 C.ar      1 <0>         0.0000
      5 C5         -1.6922    2.4164   -0.1102 C.ar      1 <0>         0.0000
      6 C6         -4.7145    1.3230    1.7474 C.ar      1 <0>         0.0000
      7 C7         -2.9992    2.4054    0.4037 C.ar      1 <0>         0.0000
      8 C8         -3.4075    1.3341    1.2335 C.ar      1 <0>         0.0000
      9 C9         -0.8006    1.3861    0.1898 C.ar      1 <0>         0.0000
     10 C10        -5.6060    2.3534    1.4475 C.ar      1 <0>         0.0000
     11 C11         1.6538    1.5055    0.7297 C.2       1 <0>         0.0000
     12 C12         0.9077    0.2187   -1.2838 C.3       1 <0>         0.0000
     13 C13        -7.7299    3.4115    1.6068 C.3       1 <0>         0.0000
     14 C14         0.5838    1.4135   -0.3640 C.3       1 <0>         0.0000
     15 O1          2.1909    0.5383    1.2539 O.2       1 <0>         0.0000
     16 O2          1.9515    2.7851    1.0787 O.3       1 <0>         0.0000
     17 O3         -6.8695    2.3274    1.9532 O.3       1 <0>         0.0000
     18 H1         -2.8019   -0.5150    2.1576 H         1 <0>         0.0000
     19 H2         -3.6048    4.2545   -0.5203 H         1 <0>         0.0000
     20 H3         -0.5112   -0.4644    1.2373 H         1 <0>         0.0000
     21 H4         -5.8955    4.2039    0.4000 H         1 <0>         0.0000
     22 H5         -1.3740    3.2308   -0.7441 H         1 <0>         0.0000
     23 H6         -5.0327    0.5085    2.3812 H         1 <0>         0.0000
     24 H7          1.9406    0.3079   -1.6517 H         1 <0>         0.0000
     25 H8          0.7997   -0.7188   -0.7187 H         1 <0>         0.0000
     26 H9          0.2138    0.2144   -2.1373 H         1 <0>         0.0000
     27 H10        -8.7126    3.2657    2.0790 H         1 <0>         0.0000
     28 H11        -7.2900    4.3558    1.9601 H         1 <0>         0.0000
     29 H12        -7.8502    3.4493    0.5141 H         1 <0>         0.0000
     30 H13         0.6747    2.3216   -0.9780 H         1 <0>         0.0000
     31 H14         2.6120    2.7821    1.7615 H         1 <0>         0.0000
@<TRIPOS>BOND
     1    1    3 ar
     2    1    8 ar
     3    2    4 ar
     4    2    7 ar
     5    3    9 ar
     6    4   10 ar
     7    5    7 ar
     8    5    9 ar
     9    6    8 ar
    10    6   10 ar
    11    7    8 ar
    12    9   14 1
    13   10   17 1
    14   11   14 1
    15   11   15 2
    16   11   16 1
    17   12   14 1
    18   13   17 1
    19    1   18 1
    20    2   19 1
    21    3   20 1
    22    4   21 1
    23    5   22 1
    24    6   23 1
    25   12   24 1
    26   12   25 1
    27   12   26 1
    28   13   27 1
    29   13   28 1
    30   13   29 1
    31   14   30 1
    32   16   31 1
@<TRIPOS>MOLECULE
naproxen_13
   31    32     0     0     0
SMALL
NO_CHARGES

@<TRIPOS>ATOM
      1 C1         -2.2923    1.4280    2.0855 C.ar      1 <0>         0.0000
      2 C2         -4.3174    1.4125   -1.0256 C.ar      1 <0>         0.0000
      3 C3         -0.9970    1.4278    1.5672 C.ar      1 <0>         0.0000
      4 C4         -5.6127    1.4126   -0.5073 C.ar      1 <0>         0.0000
      5 C5         -1.8927    1.4174   -0.6745 C.ar      1 <0>         0.0000
      6 C6         -4.7171    1.4229    1.7344 C.ar      1 <0>         0.0000
      7 C7         -3.2035    1.4175   -0.1704 C.ar      1 <0>         0.0000
      8 C8         -3.4063    1.4229    1.2303 C.ar      1 <0>         0.0000
      9 C9         -0.7976    1.4225    0.1899 C.ar      1 <0>         0.0000
     10 C10        -5.8122    1.4179    0.8701 C.ar      1 <0>         0.0000
     11 C11         1.6579    1.5025    0.7324 C.2       1 <0>         0.0000
     12 C12         0.8921    0.2171   -1.2746 C.3       1 <0>         0.0000
     13 C13        -7.2081    1.4230    2.7955 C.3       1 <0>         0.0000
     14 C14         0.5878    1.4227   -0.3621 C.3       1 <0>         0.0000
     15 O1          2.1776    0.5293    1.2628 O.2       1 <0>         0.0000
     16 O2          1.9773    2.7788    1.0743 O.3       1 <0>         0.0000
     17 O3         -7.0763    1.4175    1.3749 O.3       1 <0>         0.0000
     18 H1         -2.4399    1.4321    3.1553 H         1 <0>         0.0000
     19 H2         -4.1698    1.4084   -2.0954 H         1 <0>         0.0000
     20 H3         -0.1485    1.4317    2.2354 H         1 <0>         0.0000
     21 H4         -6.4613    1.4087   -1.1754 H         1 <0>         0.0000
     22 H5         -1.7307    1.4133   -1.7423 H         1 <0>         0.0000
     23 H6         -4.8790    1.4269    2.8022 H         1 <0>         0.0000
     24 H7          1.9268    0.2863   -1.6416 H         1 <0>         0.0000
     25 H8          0.7671   -0.7151   -0.7042 H         1 <0>         0.0000
     26 H9          0.1992    0.2199   -2.1289 H         1 <0>         0.0000
     27 H10        -8.2744    1.4221    3.0654 H         1 <0>         0.0000
     28 H11        -6.7238    0.5275    3.2120 H         1 <0>         0.0000
     29 H12        -6.7272    2.3238    3.2047 H         1 <0>         0.0000
     30 H13         0.6952    2.3255   -0.9813 H         1 <0>         0.0000
     31 H14         2.6369    2.7683    1.7580 H         1 <0>         0.0000
@<TRIPOS>BOND
     1    1    3 ar
     2    1    8 ar
     3    2    4 ar
     4    2    7 ar
     5    3    9 ar
     6    4   10 ar
     7    5    7 ar
     8    5    9 ar
     9    6    8 ar
    10    6   10 ar
    11    7    8 ar
    12    9   14 1
    13   10   17 1
    14   11   14 1
    15   11   15 2
    16   11   16 1
    17   12   14 1
    18   13   17 1
    19    1   18 1
    20    2   19 1
    21    3   20 1
    22    4   21 1
    23    5   22 1
    24    6   23 1
    25   12   24 1
    26   12   25 1
    27   12   26 1
    28   13   27 1
    29   13   28 1
    30   13   29 1
    31   14   30 1
    32   16   31 1
@<TRIPOS>MOLECULE
naproxen_13
   31    32     0     0     0
SMALL
NO_CHARGES

@<TRIPOS>ATOM
      1 C1         -2.9650    0.3782    0.4941 C.ar      1 <0>         0.0000
      2 C2         -3.0671    3.8048    1.9182 C.ar      1 <0>         0.0000
      3 C3         -1.6612    0.3273    0.0000 C.ar      1 <0>         0.0000
      4 C4         -4.3708    3.8555    2.4122 C.ar      1 <0>         0.0000
      5 C5         -1.2789    2.5819    0.7737 C.ar      1 <0>         0.0000
      6 C6         -4.7532    1.6011    1.6384 C.ar      1 <0>         0.0000
      7 C7         -2.5882    2.6506    1.2771 C.ar      1 <0>         0.0000
      8 C8         -3.4439    1.5323    1.1351 C.ar      1 <0>         0.0000
      9 C9         -0.8198    1.4271    0.1396 C.ar      1 <0>         0.0000
     10 C10        -5.2123    2.7558    2.2726 C.ar      1 <0>         0.0000
     11 C11         1.6250    1.6458    0.6921 C.2       1 <0>         0.0000
     12 C12         0.9158    0.0432   -1.0955 C.3       1 <0>         0.0000
     13 C13        -7.2923    1.6439    2.5774 C.3       1 <0>         0.0000
     14 C14         0.5736    1.3707   -0.3889 C.3       1 <0>         0.0000
     15 O1          1.6831    2.6743    1.3535 O.2       1 <0>         0.0000
     16 O2          2.5111    0.6266    0.8462 O.3       1 <0>         0.0000
     17 O3         -6.4843    2.8064    2.7545 O.3       1 <0>         0.0000
     18 H1         -3.6126   -0.4789    0.3824 H         1 <0>         0.0000
     19 H2         -2.4194    4.6618    2.0299 H         1 <0>         0.0000
     20 H3         -1.3047   -0.5660   -0.4911 H         1 <0>         0.0000
     21 H4         -4.7274    4.7489    2.9033 H         1 <0>         0.0000
     22 H5         -0.6207    3.4317    0.8786 H         1 <0>         0.0000
     23 H6         -5.4114    0.7513    1.5335 H         1 <0>         0.0000
     24 H7          1.9544    0.0764   -1.4563 H         1 <0>         0.0000
     25 H8          0.8006   -0.7898   -0.3864 H         1 <0>         0.0000
     26 H9          0.2362   -0.1042   -1.9478 H         1 <0>         0.0000
     27 H10        -8.2884    1.8198    3.0098 H         1 <0>         0.0000
     28 H11        -7.3920    1.4269    1.5037 H         1 <0>         0.0000
     29 H12        -6.8195    0.7885    3.0821 H         1 <0>         0.0000
     30 H13         0.6725    2.1666   -1.1417 H         1 <0>         0.0000
     31 H14         3.1406    0.8530    1.5207 H         1 <0>         0.0000
@<TRIPOS>BOND
     1    1    3 ar
     2    1    8 ar
     3    2    4 ar
     4    2    7 ar
     5    3    9 ar
     6    4   10 ar
     7    5    7 ar
     8    5    9 ar
     9    6    8 ar
    10    6   10 ar
    11    7    8 ar
    12    9   14 1
    13   10   17 1
    14   11   14 1
    15   11   15 2
    16   11   16 1
    17   12   14 1
    18   13   17 1
    19    1   18 1
    20    2   19 1
    21    3   20 1
    22    4   21 1
    23    5   22 1
    24    6   23 1
    25   12   24 1
    26   12   25 1
    27   12   26 1
    28   13   27 1
    29   13   28 1
    30   13   29 1
    31   14   30 1
    32   16   31 1
@<TRIPOS>MOLECULE
naproxen_13
   31    32     0     0     0
SMALL
NO_CHARGES

@<TRIPOS>ATOM
      1 C1         -2.3044    1.4203    2.0661 C.ar      1 <0>         0.0000
      2 C2         -4.3136    1.4000   -1.0552 C.ar      1 <0>         0.0000
      3 C3         -1.0065    1.4233    1.5545 C.ar      1 <0>         0.0000
      4 C4         -5.6116    1.3970   -0.5435 C.ar      1 <0>         0.0000
      5 C5         -1.8907    1.4108   -0.6918 C.ar      1 <0>         0.0000
      6 C6         -4.7274    1.4093    1.7027 C.ar      1 <0>         0.0000
      7 C7         -3.2041    1.4077   -0.1944 C.ar      1 <0>         0.0000
      8 C8         -3.4140    1.4125    1.2052 C.ar      1 <0>         0.0000
      9 C9         -0.8000    1.4186    0.1782 C.ar      1 <0>         0.0000
     10 C10        -5.8180    1.4016    0.8328 C.ar      1 <0>         0.0000
     11 C11         1.6524    1.5046    0.7331 C.2       1 <0>         0.0000
     12 C12         0.9000    0.2174   -1.2778 C.3       1 <0>         0.0000
     13 C13        -8.1540    1.3897    0.3866 C.3       1 <0>         0.0000
     14 C14         0.5881    1.4222   -0.3669 C.3       1 <0>         0.0000
     15 O1          2.1718    0.5326    1.2662 O.2       1 <0>         0.0000
     16 O2          1.9670    2.7816    1.0767 O.3       1 <0>         0.0000
     17 O3         -7.0847    1.3982    1.3312 O.3       1 <0>         0.0000
     18 H1         -2.4575    1.4240    3.1352 H         1 <0>         0.0000
     19 H2         -4.1606    1.3963   -2.1243 H         1 <0>         0.0000
     20 H3         -0.1614    1.4293    2.2269 H         1 <0>         0.0000
     21 H4         -6.4567    1.3910   -1.2159 H         1 <0>         0.0000
     22 H5         -1.7233    1.4072   -1.7587 H         1 <0>         0.0000
     23 H6         -4.8947    1.4129    2.7697 H         1 <0>         0.0000
     24 H7          1.9363    0.2891   -1.6396 H         1 <0>         0.0000
     25 H8          0.7744   -0.7151   -0.7080 H         1 <0>         0.0000
     26 H9          0.2114    0.2185   -2.1356 H         1 <0>         0.0000
     27 H10        -9.1156    1.3877    0.9207 H         1 <0>         0.0000
     28 H11        -8.0892    2.2856   -0.2483 H         1 <0>         0.0000
     29 H12        -8.0814    0.4893   -0.2411 H         1 <0>         0.0000
     30 H13         0.6964    2.3253   -0.9855 H         1 <0>         0.0000
     31 H14         2.6231    2.7727    1.7637 H         1 <0>         0.0000
@<TRIPOS>BOND
     1    1    3 ar
     2    1    8 ar
     3    2    4 ar
     4    2    7 ar
     5    3    9 ar
     6    4   10 ar
     7    5    7 ar
     8    5    9 ar
     9    6    8 ar
    10    6   10 ar
    11    7    8 ar
    12    9   14 1
    13   10   17 1
    14   11   14 1
    15   11   15 2
    16   11   16 1
    17   12   14 1
    18   13   17 1
    19    1   18 1
    20    2   19 1
    21    3   20 1
    22    4   21 1
    23    5   22 1
    24    6   23 1
    25   12   24 1
    26   12   25 1
    27   12   26 1
    28   13   27 1
    29   13   28 1
    30   13   29 1
    31   14   30 1
    32   16   31 1
@<TRIPOS>MOLECULE
naproxen_13
   31    32     0     0     0
SMALL
NO_CHARGES

@<TRIPOS>ATOM
      1 C1         -2.9633    0.3583    0.4734 C.ar      1 <0>         0.0000
      2 C2         -3.0871    3.7775    1.9134 C.ar      1 <0>         0.0000
      3 C3         -1.6572    0.3157   -0.0152 C.ar      1 <0>         0.0000
      4 C4         -4.3932    3.8201    2.4019 C.ar      1 <0>         0.0000
      5 C5         -1.2884    2.5681    0.7710 C.ar      1 <0>         0.0000
      6 C6         -4.7620    1.5677    1.6157 C.ar      1 <0>         0.0000
      7 C7         -2.6002    2.6286    1.2689 C.ar      1 <0>         0.0000
      8 C8         -3.4502    1.5072    1.1178 C.ar      1 <0>         0.0000
      9 C9         -0.8214    1.4184    0.1333 C.ar      1 <0>         0.0000
     10 C10        -5.2291    2.7173    2.2533 C.ar      1 <0>         0.0000
     11 C11         1.6199    1.6454    0.6977 C.2       1 <0>         0.0000
     12 C12         0.9258    0.0483   -1.1007 C.3       1 <0>         0.0000
     13 C13        -6.9170    3.9657    3.3705 C.3       1 <0>         0.0000
     14 C14         0.5746    1.3708   -0.3892 C.3       1 <0>         0.0000
     15 O1          1.6706    2.6710    1.3643 O.2       1 <0>         0.0000
     16 O2          2.5100    0.6295    0.8508 O.3       1 <0>         0.0000
     17 O3         -6.5034    2.7599    2.7298 O.3       1 <0>         0.0000
     18 H1         -3.6066   -0.5011    0.3547 H         1 <0>         0.0000
     19 H2         -2.4438    4.6368    2.0321 H         1 <0>         0.0000
     20 H3         -1.2945   -0.5737   -0.5090 H         1 <0>         0.0000
     21 H4         -4.7559    4.7094    2.8957 H         1 <0>         0.0000
     22 H5         -0.6345    3.4203    0.8828 H         1 <0>         0.0000
     23 H6         -5.4160    0.7155    1.5037 H         1 <0>         0.0000
     24 H7          1.9658    0.0879   -1.4568 H         1 <0>         0.0000
     25 H8          0.8112   -0.7886   -0.3961 H         1 <0>         0.0000
     26 H9          0.2506   -0.0980   -1.9567 H         1 <0>         0.0000
     27 H10        -7.9600    3.8646    3.7051 H         1 <0>         0.0000
     28 H11        -6.2706    4.1595    4.2392 H         1 <0>         0.0000
     29 H12        -6.8390    4.8029    2.6614 H         1 <0>         0.0000
     30 H13         0.6732    2.1708   -1.1377 H         1 <0>         0.0000
     31 H14         3.1355    0.8554    1.5292 H         1 <0>         0.0000
@<TRIPOS>BOND
     1    1    3 ar
     2    1    8 ar
     3    2    4 ar
     4    2    7 ar
     5    3    9 ar
     6    4   10 ar
     7    5    7 ar
     8    5    9 ar
     9    6    8 ar
    10    6   10 ar
    11    7    8 ar
    12    9   14 1
    13   10   17 1
    14   11   14 1
    15   11   15 2
    16   11   16 1
    17   12   14 1
    18   13   17 1
    19    1   18 1
    20    2   19 1
    21    3   20 1
    22    4   21 1
    23    5   22 1
    24    6   23 1
    25   12   24 1
    26   12   25 1
    27   12   26 1
    28   13   27 1
    29   13   28 1
    30   13   29 1
    31   14   30 1
    32   16   31 1
@<TRIPOS>MOLECULE
naproxen_7
   31    32     0     0     0
SMALL
NO_CHARGES

@<TRIPOS>ATOM
      1 C1         -3.2243    2.2329   -5.2455 C.ar      1 <0>         0.0000
      2 C2         -6.2489    2.6642   -7.3541 C.ar      1 <0>         0.0000
      3 C3         -3.7770    1.6929   -4.0838 C.ar      1 <0>         0.0000
      4 C4         -5.6961    3.2042   -8.5157 C.ar      1 <0>         0.0000
      5 C5         -5.9732    1.7926   -5.0809 C.ar      1 <0>         0.0000
      6 C6         -3.4999    3.1046   -7.5185 C.ar      1 <0>         0.0000
      7 C7         -5.4341    2.3368   -6.2580 C.ar      1 <0>         0.0000
      8 C8         -4.0391    2.5603   -6.3415 C.ar      1 <0>         0.0000
      9 C9         -5.1488    1.4732   -4.0017 C.ar      1 <0>         0.0000
     10 C10        -4.3243    3.4239   -8.5978 C.ar      1 <0>         0.0000
     11 C11        -5.2268   -0.5200   -2.4683 C.2       1 <0>         0.0000
     12 C12        -5.5275    1.7721   -1.5077 C.3       1 <0>         0.0000
     13 C13        -2.3733    4.1501   -9.7475 C.3       1 <0>         0.0000
     14 C14        -5.7376    0.8956   -2.7593 C.3       1 <0>         0.0000
     15 O1         -4.2477   -0.7730   -1.7784 O.2       1 <0>         0.0000
     16 O2         -5.9696   -1.4887   -3.0663 O.3       1 <0>         0.0000
     17 O3         -3.7860    3.9512   -9.7314 O.3       1 <0>         0.0000
     18 H1         -2.1590    2.4008   -5.3024 H         1 <0>         0.0000
     19 H2         -7.3142    2.4963   -7.2971 H         1 <0>         0.0000
     20 H3         -3.1398    1.4453   -3.2477 H         1 <0>         0.0000
     21 H4         -6.3333    3.4518   -9.3518 H         1 <0>         0.0000
     22 H5         -7.0369    1.6196   -5.0105 H         1 <0>         0.0000
     23 H6         -2.4362    3.2777   -7.5889 H         1 <0>         0.0000
     24 H7         -5.9868    1.2833   -0.6358 H         1 <0>         0.0000
     25 H8         -4.4502    1.9036   -1.3289 H         1 <0>         0.0000
     26 H9         -5.9957    2.7549   -1.6657 H         1 <0>         0.0000
     27 H10        -2.0738    4.5786  -10.7154 H         1 <0>         0.0000
     28 H11        -2.0910    4.8398   -8.9383 H         1 <0>         0.0000
     29 H12        -1.8656    3.1854   -9.6009 H         1 <0>         0.0000
     30 H13        -6.8238    0.8183   -2.9150 H         1 <0>         0.0000
     31 H14        -5.6055   -2.3412   -2.8584 H         1 <0>         0.0000
@<TRIPOS>BOND
     1    1    3 ar
     2    1    8 ar
     3    2    4 ar
     4    2    7 ar
     5    3    9 ar
     6    4   10 ar
     7    5    7 ar
     8    5    9 ar
     9    6    8 ar
    10    6   10 ar
    11    7    8 ar
    12    9   14 1
    13   10   17 1
    14   11   14 1
    15   11   15 2
    16   11   16 1
    17   12   14 1
    18   13   17 1
    19    1   18 1
    20    2   19 1
    21    3   20 1
    22    4   21 1
    23    5   22 1
    24    6   23 1
    25   12   24 1
    26   12   25 1
    27   12   26 1
    28   13   27 1
    29   13   28 1
    30   13   29 1
    31   14   30 1
    32   16   31 1
@<TRIPOS>MOLECULE
naproxen_7
   31    32     0     0     0
SMALL
NO_CHARGES

@<TRIPOS>ATOM
      1 C1         -3.1905    2.2417   -5.2104 C.ar      1 <0>         0.0000
      2 C2         -6.1861    2.6768   -7.3591 C.ar      1 <0>         0.0000
      3 C3         -3.7587    1.6986   -4.0577 C.ar      1 <0>         0.0000
      4 C4         -5.6178    3.2199   -8.5118 C.ar      1 <0>         0.0000
      5 C5         -5.9411    1.7997   -5.0846 C.ar      1 <0>         0.0000
      6 C6         -3.4354    3.1189   -7.4848 C.ar      1 <0>         0.0000
      7 C7         -5.3862    2.3471   -6.2528 C.ar      1 <0>         0.0000
      8 C8         -3.9903    2.5715   -6.3167 C.ar      1 <0>         0.0000
      9 C9         -5.1314    1.4780   -3.9950 C.ar      1 <0>         0.0000
     10 C10        -4.2451    3.4405   -8.5745 C.ar      1 <0>         0.0000
     11 C11        -5.2293   -0.5190   -2.4678 C.2       1 <0>         0.0000
     12 C12        -5.5444    1.7705   -1.5056 C.3       1 <0>         0.0000
     13 C13        -4.5762    4.2772  -10.7759 C.3       1 <0>         0.0000
     14 C14        -5.7369    0.8971   -2.7621 C.3       1 <0>         0.0000
     15 O1         -4.2596   -0.7732   -1.7651 O.2       1 <0>         0.0000
     16 O2         -5.9633   -1.4866   -3.0782 O.3       1 <0>         0.0000
     17 O3         -3.6916    3.9709   -9.6993 O.3       1 <0>         0.0000
     18 H1         -2.1246    2.4103   -5.2524 H         1 <0>         0.0000
     19 H2         -7.2520    2.5082   -7.3172 H         1 <0>         0.0000
     20 H3         -3.1329    1.4493   -3.2136 H         1 <0>         0.0000
     21 H4         -6.2436    3.4693   -9.3559 H         1 <0>         0.0000
     22 H5         -7.0056    1.6259   -5.0291 H         1 <0>         0.0000
     23 H6         -2.3709    3.2928   -7.5402 H         1 <0>         0.0000
     24 H7         -6.0153    1.2793   -0.6413 H         1 <0>         0.0000
     25 H8         -4.4697    1.9021   -1.3118 H         1 <0>         0.0000
     26 H9         -6.0109    2.7535   -1.6676 H         1 <0>         0.0000
     27 H10        -4.0018    4.6960  -11.6154 H         1 <0>         0.0000
     28 H11        -5.0870    3.3595  -11.1030 H         1 <0>         0.0000
     29 H12        -5.3223    5.0121  -10.4395 H         1 <0>         0.0000
     30 H13        -6.8208    0.8196   -2.9329 H         1 <0>         0.0000
     31 H14        -5.6017   -2.3394   -2.8675 H         1 <0>         0.0000
@<TRIPOS>BOND
     1    1    3 ar
     2    1    8 ar
     3    2    4 ar
     4    2    7 ar
     5    3    9 ar
     6    4   10 ar
     7    5    7 ar
     8    5    9 ar
     9    6    8 ar
    10    6   10 ar
    11    7    8 ar
    12    9   14 1
    13   10   17 1
    14   11   14 1
    15   11   15 2
    16   11   16 1
    17   12   14 1
    18   13   17 1
    19    1   18 1
    20    2   19 1
    21    3   20 1
    22    4   21 1
    23    5   22 1
    24    6   23 1
    25   12   24 1
    26   12   25 1
    27   12   26 1
    28   13   27 1
    29   13   28 1
    30   13   29 1
    31   14   30 1
    32   16   31 1
@<TRIPOS>MOLECULE
naproxen_7
   31    32     0     0     0
SMALL
NO_CHARGES

@<TRIPOS>ATOM
      1 C1         -3.6860    1.2654   -5.9030 C.ar      1 <0>         0.0000
      2 C2         -5.4727    4.5125   -6.1126 C.ar      1 <0>         0.0000
      3 C3         -4.2230    0.7343   -4.7300 C.ar      1 <0>         0.0000
      4 C4         -4.9357    5.0435   -7.2856 C.ar      1 <0>         0.0000
      5 C5         -5.5930    2.7041   -4.4640 C.ar      1 <0>         0.0000
      6 C6         -3.5656    3.0738   -7.5516 C.ar      1 <0>         0.0000
      7 C7         -5.0633    3.2540   -5.6426 C.ar      1 <0>         0.0000
      8 C8         -4.0955    2.5239   -6.3729 C.ar      1 <0>         0.0000
      9 C9         -5.1747    1.4522   -4.0118 C.ar      1 <0>         0.0000
     10 C10        -3.9840    4.3256   -8.0038 C.ar      1 <0>         0.0000
     11 C11        -5.2252   -0.5268   -2.4592 C.2       1 <0>         0.0000
     12 C12        -5.5311    1.7722   -1.5172 C.3       1 <0>         0.0000
     13 C13        -2.4895    4.0556   -9.8339 C.3       1 <0>         0.0000
     14 C14        -5.7478    0.8827   -2.7584 C.3       1 <0>         0.0000
     15 O1         -4.2379   -0.7672   -1.7765 O.2       1 <0>         0.0000
     16 O2         -5.9676   -1.5058   -3.0408 O.3       1 <0>         0.0000
     17 O3         -3.4602    4.8447   -9.1479 O.3       1 <0>         0.0000
     18 H1         -2.9479    0.7029   -6.4555 H         1 <0>         0.0000
     19 H2         -6.2109    5.0750   -5.5602 H         1 <0>         0.0000
     20 H3         -3.9000   -0.2346   -4.3790 H         1 <0>         0.0000
     21 H4         -5.2588    6.0125   -7.6367 H         1 <0>         0.0000
     22 H5         -6.3318    3.2559   -3.9018 H         1 <0>         0.0000
     23 H6         -2.8267    2.5221   -8.1137 H         1 <0>         0.0000
     24 H7         -5.9787    1.2888   -0.6363 H         1 <0>         0.0000
     25 H8         -4.4529    1.9121   -1.3502 H         1 <0>         0.0000
     26 H9         -6.0069    2.7506   -1.6798 H         1 <0>         0.0000
     27 H10        -2.1521    4.5896  -10.7344 H         1 <0>         0.0000
     28 H11        -1.6301    3.8744   -9.1716 H         1 <0>         0.0000
     29 H12        -2.9377    3.0940  -10.1243 H         1 <0>         0.0000
     30 H13        -6.8349    0.7972   -2.9027 H         1 <0>         0.0000
     31 H14        -5.5961   -2.3540   -2.8285 H         1 <0>         0.0000
@<TRIPOS>BOND
     1    1    3 ar
     2    1    8 ar
     3    2    4 ar
     4    2    7 ar
     5    3    9 ar
     6    4   10 ar
     7    5    7 ar
     8    5    9 ar
     9    6    8 ar
    10    6   10 ar
    11    7    8 ar
    12    9   14 1
    13   10   17 1
    14   11   14 1
    15   11   15 2
    16   11   16 1
    17   12   14 1
    18   13   17 1
    19    1   18 1
    20    2   19 1
    21    3   20 1
    22    4   21 1
    23    5   22 1
    24    6   23 1
    25   12   24 1
    26   12   25 1
    27   12   26 1
    28   13   27 1
    29   13   28 1
    30   13   29 1
    31   14   30 1
    32   16   31 1
@<TRIPOS>MOLECULE
naproxen_7
   31    32     0     0     0
SMALL
NO_CHARGES

@<TRIPOS>ATOM
      1 C1         -5.1637    3.3330   -5.5425 C.ar      1 <0>         0.0000
      2 C2         -2.8070    0.7005   -6.6806 C.ar      1 <0>         0.0000
      3 C3         -5.6685    2.7602   -4.3748 C.ar      1 <0>         0.0000
      4 C4         -2.3022    1.2733   -7.8483 C.ar      1 <0>         0.0000
      5 C5         -4.2801    0.8169   -4.7264 C.ar      1 <0>         0.0000
      6 C6         -3.6907    3.2165   -7.4967 C.ar      1 <0>         0.0000
      7 C7         -3.7611    1.3783   -5.9045 C.ar      1 <0>         0.0000
      8 C8         -4.2096    2.6551   -6.3186 C.ar      1 <0>         0.0000
      9 C9         -5.2276    1.5046   -3.9675 C.ar      1 <0>         0.0000
     10 C10        -2.7432    2.5289   -8.2556 C.ar      1 <0>         0.0000
     11 C11        -5.2232   -0.5167   -2.4693 C.2       1 <0>         0.0000
     12 C12        -5.5361    1.7519   -1.4582 C.3       1 <0>         0.0000
     13 C13        -2.7460    4.3758   -9.7538 C.3       1 <0>         0.0000
     14 C14        -5.7681    0.8941   -2.7188 C.3       1 <0>         0.0000
     15 O1         -4.2193   -0.7637   -1.8137 O.2       1 <0>         0.0000
     16 O2         -5.9661   -1.4883   -3.0625 O.3       1 <0>         0.0000
     17 O3         -2.2505    3.0868   -9.3953 O.3       1 <0>         0.0000
     18 H1         -5.5103    4.3077   -5.8527 H         1 <0>         0.0000
     19 H2         -2.4604   -0.2742   -6.3704 H         1 <0>         0.0000
     20 H3         -6.4020    3.2915   -3.7865 H         1 <0>         0.0000
     21 H4         -1.5687    0.7420   -8.4366 H         1 <0>         0.0000
     22 H5         -3.9423   -0.1571   -4.4046 H         1 <0>         0.0000
     23 H6         -4.0286    4.1905   -7.8186 H         1 <0>         0.0000
     24 H7         -5.9598    1.2392   -0.5821 H         1 <0>         0.0000
     25 H8         -4.4564    1.9002   -1.3094 H         1 <0>         0.0000
     26 H9         -6.0265    2.7285   -1.5841 H         1 <0>         0.0000
     27 H10        -2.2681    4.7061  -10.6879 H         1 <0>         0.0000
     28 H11        -3.8352    4.3227   -9.8983 H         1 <0>         0.0000
     29 H12        -2.5171    5.0927   -8.9515 H         1 <0>         0.0000
     30 H13        -6.8569    0.7994   -2.8434 H         1 <0>         0.0000
     31 H14        -5.5805   -2.3374   -2.8813 H         1 <0>         0.0000
@<TRIPOS>BOND
     1    1    3 ar
     2    1    8 ar
     3    2    4 ar
     4    2    7 ar
     5    3    9 ar
     6    4   10 ar
     7    5    7 ar
     8    5    9 ar
     9    6    8 ar
    10    6   10 ar
    11    7    8 ar
    12    9   14 1
    13   10   17 1
    14   11   14 1
    15   11   15 2
    16   11   16 1
    17   12   14 1
    18   13   17 1
    19    1   18 1
    20    2   19 1
    21    3   20 1
    22    4   21 1
    23    5   22 1
    24    6   23 1
    25   12   24 1
    26   12   25 1
    27   12   26 1
    28   13   27 1
    29   13   28 1
    30   13   29 1
    31   14   30 1
    32   16   31 1
@<TRIPOS>MOLECULE
naproxen_7
   31    32     0     0     0
SMALL
NO_CHARGES

@<TRIPOS>ATOM
      1 C1         -3.6555    1.2707   -5.8897 C.ar      1 <0>         0.0000
      2 C2         -5.4384    4.5192   -6.1107 C.ar      1 <0>         0.0000
      3 C3         -4.2030    0.7385   -4.7221 C.ar      1 <0>         0.0000
      4 C4         -4.8909    5.0514   -7.2784 C.ar      1 <0>         0.0000
      5 C5         -5.5741    2.7087   -4.4655 C.ar      1 <0>         0.0000
      6 C6         -3.5197    3.0812   -7.5349 C.ar      1 <0>         0.0000
      7 C7         -5.0338    3.2598   -5.6388 C.ar      1 <0>         0.0000
      8 C8         -4.0601    2.5301   -6.3616 C.ar      1 <0>         0.0000
      9 C9         -5.1604    1.4561   -4.0113 C.ar      1 <0>         0.0000
     10 C10        -3.9334    4.3337   -7.9891 C.ar      1 <0>         0.0000
     11 C11        -5.2256   -0.5249   -2.4617 C.2       1 <0>         0.0000
     12 C12        -5.5384    1.7732   -1.5195 C.3       1 <0>         0.0000
     13 C13        -3.8661    6.1390   -9.5359 C.3       1 <0>         0.0000
     14 C14        -5.7448    0.8854   -2.7636 C.3       1 <0>         0.0000
     15 O1         -4.2444   -0.7667   -1.7707 O.2       1 <0>         0.0000
     16 O2         -5.9635   -1.5026   -3.0509 O.3       1 <0>         0.0000
     17 O3         -3.3993    4.8540   -9.1280 O.3       1 <0>         0.0000
     18 H1         -2.9129    0.7085   -6.4364 H         1 <0>         0.0000
     19 H2         -6.1810    5.0814   -5.5641 H         1 <0>         0.0000
     20 H3         -3.8835   -0.2310   -4.3695 H         1 <0>         0.0000
     21 H4         -5.2103    6.0209   -7.6310 H         1 <0>         0.0000
     22 H5         -6.3175    3.2603   -3.9091 H         1 <0>         0.0000
     23 H6         -2.7762    2.5297   -8.0912 H         1 <0>         0.0000
     24 H7         -5.9940    1.2890   -0.6431 H         1 <0>         0.0000
     25 H8         -4.4616    1.9123   -1.3429 H         1 <0>         0.0000
     26 H9         -6.0122    2.7520   -1.6850 H         1 <0>         0.0000
     27 H10        -3.3561    6.4375  -10.4636 H         1 <0>         0.0000
     28 H11        -4.9512    6.0960   -9.7116 H         1 <0>         0.0000
     29 H12        -3.6514    6.8745   -8.7466 H         1 <0>         0.0000
     30 H13        -6.8306    0.8007   -2.9175 H         1 <0>         0.0000
     31 H14        -5.5944   -2.3513   -2.8365 H         1 <0>         0.0000
@<TRIPOS>BOND
     1    1    3 ar
     2    1    8 ar
     3    2    4 ar
     4    2    7 ar
     5    3    9 ar
     6    4   10 ar
     7    5    7 ar
     8    5    9 ar
     9    6    8 ar
    10    6   10 ar
    11    7    8 ar
    12    9   14 1
    13   10   17 1
    14   11   14 1
    15   11   15 2
    16   11   16 1
    17   12   14 1
    18   13   17 1
    19    1   18 1
    20    2   19 1
    21    3   20 1
    22    4   21 1
    23    5   22 1
    24    6   23 1
    25   12   24 1
    26   12   25 1
    27   12   26 1
    28   13   27 1
    29   13   28 1
    30   13   29 1
    31   14   30 1
    32   16   31 1
@<TRIPOS>MOLECULE
naproxen_7
   31    32     0     0     0
SMALL
NO_CHARGES

@<TRIPOS>ATOM
      1 C1         -5.1489    3.3406   -5.5359 C.ar      1 <0>         0.0000
      2 C2         -2.7868    0.7107   -6.6690 C.ar      1 <0>         0.0000
      3 C3         -5.6592    2.7650   -4.3719 C.ar      1 <0>         0.0000
      4 C4         -2.2765    1.2862   -7.8330 C.ar      1 <0>         0.0000
      5 C5         -4.2692    0.8226   -4.7215 C.ar      1 <0>         0.0000
      6 C6         -3.6666    3.2286   -7.4834 C.ar      1 <0>         0.0000
      7 C7         -3.7446    1.3867   -5.8958 C.ar      1 <0>         0.0000
      8 C8         -4.1911    2.6645   -6.3091 C.ar      1 <0>         0.0000
      9 C9         -5.2202    1.5085   -3.9655 C.ar      1 <0>         0.0000
     10 C10        -2.7156    2.5428   -8.2394 C.ar      1 <0>         0.0000
     11 C11        -5.2228   -0.5162   -2.4720 C.2       1 <0>         0.0000
     12 C12        -5.5405    1.7500   -1.4571 C.3       1 <0>         0.0000
     13 C13        -1.2488    2.3482  -10.1012 C.3       1 <0>         0.0000
     14 C14        -5.7665    0.8951   -2.7208 C.3       1 <0>         0.0000
     15 O1         -4.2220   -0.7648   -1.8123 O.2       1 <0>         0.0000
     16 O2         -5.9630   -1.4864   -3.0710 O.3       1 <0>         0.0000
     17 O3         -2.2176    3.1034   -9.3755 O.3       1 <0>         0.0000
     18 H1         -5.4940    4.3160   -5.8454 H         1 <0>         0.0000
     19 H2         -2.4417   -0.2648   -6.3594 H         1 <0>         0.0000
     20 H3         -6.3954    3.2950   -3.7858 H         1 <0>         0.0000
     21 H4         -1.5403    0.7563   -8.4191 H         1 <0>         0.0000
     22 H5         -3.9329   -0.1522   -4.4004 H         1 <0>         0.0000
     23 H6         -4.0030    4.2034   -7.8046 H         1 <0>         0.0000
     24 H7         -5.9684    1.2352   -0.5842 H         1 <0>         0.0000
     25 H8         -4.4615    1.8979   -1.3029 H         1 <0>         0.0000
     26 H9         -6.0303    2.7269   -1.5830 H         1 <0>         0.0000
     27 H10        -0.9332    2.9139  -10.9903 H         1 <0>         0.0000
     28 H11        -0.3762    2.1580   -9.4591 H         1 <0>         0.0000
     29 H12        -1.6898    1.3902  -10.4138 H         1 <0>         0.0000
     30 H13        -6.8548    0.8008   -2.8507 H         1 <0>         0.0000
     31 H14        -5.5783   -2.3360   -2.8899 H         1 <0>         0.0000
@<TRIPOS>BOND
     1    1    3 ar
     2    1    8 ar
     3    2    4 ar
     4    2    7 ar
     5    3    9 ar
     6    4   10 ar
     7    5    7 ar
     8    5    9 ar
     9    6    8 ar
    10    6   10 ar
    11    7    8 ar
    12    9   14 1
    13   10   17 1
    14   11   14 1
    15   11   15 2
    16   11   16 1
    17   12   14 1
    18   13   17 1
    19    1   18 1
    20    2   19 1
    21    3   20 1
    22    4   21 1
    23    5   22 1
    24    6   23 1
    25   12   24 1
    26   12   25 1
    27   12   26 1
    28   13   27 1
    29   13   28 1
    30   13   29 1
    31   14   30 1
    32   16   31 1
@<TRIPOS>MOLECULE
naproxen_7
   31    32     0     0     0
SMALL
NO_CHARGES

@<TRIPOS>ATOM
      1 C1         -3.9710    3.2161   -5.1599 C.ar      1 <0>         0.0000
      2 C2         -5.4952    0.9322   -7.6580 C.ar      1 <0>         0.0000
      3 C3         -4.4292    2.6586   -3.9659 C.ar      1 <0>         0.0000
      4 C4         -5.0369    1.4898   -8.8520 C.ar      1 <0>         0.0000
      5 C5         -5.5981    0.9518   -5.2102 C.ar      1 <0>         0.0000
      6 C6         -3.8681    3.1966   -7.6077 C.ar      1 <0>         0.0000
      7 C7         -5.1459    1.4996   -6.4217 C.ar      1 <0>         0.0000
      8 C8         -4.3202    2.6487   -6.3962 C.ar      1 <0>         0.0000
      9 C9         -5.2412    1.5286   -3.9910 C.ar      1 <0>         0.0000
     10 C10        -4.2249    2.6198   -8.8268 C.ar      1 <0>         0.0000
     11 C11        -5.3331   -0.5387   -2.5600 C.2       1 <0>         0.0000
     12 C12        -5.2814    1.7081   -1.4574 C.3       1 <0>         0.0000
     13 C13        -2.9503    4.3209   -9.8934 C.3       1 <0>         0.0000
     14 C14        -5.7298    0.9338   -2.7137 C.3       1 <0>         0.0000
     15 O1         -5.6440   -1.4238   -3.3466 O.2       1 <0>         0.0000
     16 O2         -4.5973   -0.7794   -1.4427 O.3       1 <0>         0.0000
     17 O3         -3.7786    3.1634   -9.9922 O.3       1 <0>         0.0000
     18 H1         -3.3411    4.0930   -5.1331 H         1 <0>         0.0000
     19 H2         -6.1250    0.0552   -7.6847 H         1 <0>         0.0000
     20 H3         -4.1537    3.1042   -3.0215 H         1 <0>         0.0000
     21 H4         -5.3124    1.0442   -9.7964 H         1 <0>         0.0000
     22 H5         -6.2286    0.0750   -5.2224 H         1 <0>         0.0000
     23 H6         -3.2377    4.0735   -7.5954 H         1 <0>         0.0000
     24 H7         -5.6781    1.2121   -0.5593 H         1 <0>         0.0000
     25 H8         -4.1825    1.7264   -1.4109 H         1 <0>         0.0000
     26 H9         -5.6634    2.7385   -1.5061 H         1 <0>         0.0000
     27 H10        -2.6630    4.6540  -10.9016 H         1 <0>         0.0000
     28 H11        -3.5031    5.1249   -9.3854 H         1 <0>         0.0000
     29 H12        -2.0462    4.0765   -9.3166 H         1 <0>         0.0000
     30 H13        -6.8291    0.9689   -2.7336 H         1 <0>         0.0000
     31 H14        -4.3863   -1.7044   -1.3950 H         1 <0>         0.0000
@<TRIPOS>BOND
     1    1    3 ar
     2    1    8 ar
     3    2    4 ar
     4    2    7 ar
     5    3    9 ar
     6    4   10 ar
     7    5    7 ar
     8    5    9 ar
     9    6    8 ar
    10    6   10 ar
    11    7    8 ar
    12    9   14 1
    13   10   17 1
    14   11   14 1
    15   11   15 2
    16   11   16 1
    17   12   14 1
    18   13   17 1
    19    1   18 1
    20    2   19 1
    21    3   20 1
    22    4   21 1
    23    5   22 1
    24    6   23 1
    25   12   24 1
    26   12   25 1
    27   12   26 1
    28   13   27 1
    29   13   28 1
    30   13   29 1
    31   14   30 1
    32   16   31 1
@<TRIPOS>MOLECULE
naproxen_7
   31    32     0     0     0
SMALL
NO_CHARGES

@<TRIPOS>ATOM
      1 C1         -3.9491    3.2344   -5.1296 C.ar      1 <0>         0.0000
      2 C2         -5.4445    0.9655   -7.6585 C.ar      1 <0>         0.0000
      3 C3         -4.4194    2.6687   -3.9442 C.ar      1 <0>         0.0000
      4 C4         -4.9742    1.5313   -8.8439 C.ar      1 <0>         0.0000
      5 C5         -5.5733    0.9690   -5.2119 C.ar      1 <0>         0.0000
      6 C6         -3.8203    3.2310   -7.5762 C.ar      1 <0>         0.0000
      7 C7         -5.1089    1.5251   -6.4149 C.ar      1 <0>         0.0000
      8 C8         -4.2847    2.6748   -6.3732 C.ar      1 <0>         0.0000
      9 C9         -5.2299    1.5381   -3.9852 C.ar      1 <0>         0.0000
     10 C10        -4.1636    2.6619   -8.8028 C.ar      1 <0>         0.0000
     11 C11        -5.3349   -0.5386   -2.5688 C.2       1 <0>         0.0000
     12 C12        -5.2971    1.7010   -1.4511 C.3       1 <0>         0.0000
     13 C13        -4.0947    2.5822  -11.1787 C.3       1 <0>         0.0000
     14 C14        -5.7314    0.9346   -2.7171 C.3       1 <0>         0.0000
     15 O1         -5.6366   -1.4188   -3.3645 O.2       1 <0>         0.0000
     16 O2         -4.6107   -0.7858   -1.4454 O.3       1 <0>         0.0000
     17 O3         -3.7056    3.2136   -9.9598 O.3       1 <0>         0.0000
     18 H1         -3.3204    4.1117   -5.0904 H         1 <0>         0.0000
     19 H2         -6.0731    0.0882   -7.6977 H         1 <0>         0.0000
     20 H3         -4.1543    3.1083   -2.9940 H         1 <0>         0.0000
     21 H4         -5.2393    1.0916   -9.7941 H         1 <0>         0.0000
     22 H5         -6.2028    0.0917   -5.2365 H         1 <0>         0.0000
     23 H6         -3.1909    4.1084   -7.5516 H         1 <0>         0.0000
     24 H7         -5.7027    1.1988   -0.5605 H         1 <0>         0.0000
     25 H8         -4.1988    1.7200   -1.3928 H         1 <0>         0.0000
     26 H9         -5.6796    2.7313   -1.4971 H         1 <0>         0.0000
     27 H10        -3.6585    3.1261  -12.0295 H         1 <0>         0.0000
     28 H11        -3.7343    1.5429  -11.1845 H         1 <0>         0.0000
     29 H12        -5.1915    2.5905  -11.2619 H         1 <0>         0.0000
     30 H13        -6.8304    0.9688   -2.7484 H         1 <0>         0.0000
     31 H14        -4.3993   -1.7110   -1.4015 H         1 <0>         0.0000
@<TRIPOS>BOND
     1    1    3 ar
     2    1    8 ar
     3    2    4 ar
     4    2    7 ar
     5    3    9 ar
     6    4   10 ar
     7    5    7 ar
     8    5    9 ar
     9    6    8 ar
    10    6   10 ar
    11    7    8 ar
    12    9   14 1
    13   10   17 1
    14   11   14 1
    15   11   15 2
    16   11   16 1
    17   12   14 1
    18   13   17 1
    19    1   18 1
    20    2   19 1
    21    3   20 1
    22    4   21 1
    23    5   22 1
    24    6   23 1
    25   12   24 1
    26   12   25 1
    27   12   26 1
    28   13   27 1
    29   13   28 1
    30   13   29 1
    31   14   30 1
    32   16   31 1
@<TRIPOS>MOLECULE
naproxen_7
   31    32     0     0     0
SMALL
NO_CHARGES

@<TRIPOS>ATOM
      1 C1         -5.5688    2.3544   -6.2141 C.ar      1 <0>         0.0000
      2 C2         -1.9428    2.5176   -5.4357 C.ar      1 <0>         0.0000
      3 C3         -6.0752    1.8008   -5.0378 C.ar      1 <0>         0.0000
      4 C4         -1.4365    3.0711   -6.6120 C.ar      1 <0>         0.0000
      5 C5         -3.8457    1.7179   -4.1157 C.ar      1 <0>         0.0000
      6 C6         -3.6659    3.1539   -7.5342 C.ar      1 <0>         0.0000
      7 C7         -3.3186    2.2745   -5.2924 C.ar      1 <0>         0.0000
      8 C8         -4.1930    2.5974   -6.3574 C.ar      1 <0>         0.0000
      9 C9         -5.2153    1.4832   -3.9906 C.ar      1 <0>         0.0000
     10 C10        -2.2964    3.3887   -7.6592 C.ar      1 <0>         0.0000
     11 C11        -5.2251   -0.5204   -2.4690 C.2       1 <0>         0.0000
     12 C12        -5.5168    1.7624   -1.4838 C.3       1 <0>         0.0000
     13 C13        -2.7387    4.2295   -9.8394 C.3       1 <0>         0.0000
     14 C14        -5.7585    0.8920   -2.7339 C.3       1 <0>         0.0000
     15 O1         -4.2220   -0.7682   -1.8123 O.2       1 <0>         0.0000
     16 O2         -5.9774   -1.4925   -3.0494 O.3       1 <0>         0.0000
     17 O3         -1.8015    3.9282   -8.8067 O.3       1 <0>         0.0000
     18 H1         -6.2417    2.5984   -7.0228 H         1 <0>         0.0000
     19 H2         -1.2699    2.2735   -4.6270 H         1 <0>         0.0000
     20 H3         -7.1352    1.6187   -4.9398 H         1 <0>         0.0000
     21 H4         -0.3765    3.2533   -6.7100 H         1 <0>         0.0000
     22 H5         -3.1841    1.4691   -3.2992 H         1 <0>         0.0000
     23 H6         -4.3276    3.4026   -8.3507 H         1 <0>         0.0000
     24 H7         -5.9432    1.2636   -0.6010 H         1 <0>         0.0000
     25 H8         -4.4356    1.9033   -1.3387 H         1 <0>         0.0000
     26 H9         -5.9992    2.7416   -1.6202 H         1 <0>         0.0000
     27 H10        -2.2084    4.6567  -10.7033 H         1 <0>         0.0000
     28 H11        -3.2555    3.3080  -10.1456 H         1 <0>         0.0000
     29 H12        -3.4752    4.9559   -9.4655 H         1 <0>         0.0000
     30 H13        -6.8483    0.8051   -2.8553 H         1 <0>         0.0000
     31 H14        -5.5987   -2.3427   -2.8589 H         1 <0>         0.0000
@<TRIPOS>BOND
     1    1    3 ar
     2    1    8 ar
     3    2    4 ar
     4    2    7 ar
     5    3    9 ar
     6    4   10 ar
     7    5    7 ar
     8    5    9 ar
     9    6    8 ar
    10    6   10 ar
    11    7    8 ar
    12    9   14 1
    13   10   17 1
    14   11   14 1
    15   11   15 2
    16   11   16 1
    17   12   14 1
    18   13   17 1
    19    1   18 1
    20    2   19 1
    21    3   20 1
    22    4   21 1
    23    5   22 1
    24    6   23 1
    25   12   24 1
    26   12   25 1
    27   12   26 1
    28   13   27 1
    29   13   28 1
    30   13   29 1
    31   14   30 1
    32   16   31 1
@<TRIPOS>MOLECULE
naproxen_7
   31    32     0     0     0
SMALL
NO_CHARGES

@<TRIPOS>ATOM
      1 C1         -5.5323    2.3633   -6.2151 C.ar      1 <0>         0.0000
      2 C2         -1.9148    2.5251   -5.3985 C.ar      1 <0>         0.0000
      3 C3         -6.0510    1.8078   -5.0452 C.ar      1 <0>         0.0000
      4 C4         -1.3961    3.0806   -6.5685 C.ar      1 <0>         0.0000
      5 C5         -3.8314    1.7232   -4.0998 C.ar      1 <0>         0.0000
      6 C6         -3.6157    3.1650   -7.5138 C.ar      1 <0>         0.0000
      7 C7         -3.2920    2.2818   -5.2701 C.ar      1 <0>         0.0000
      8 C8         -4.1552    2.6066   -6.3435 C.ar      1 <0>         0.0000
      9 C9         -5.2022    1.4884   -3.9896 C.ar      1 <0>         0.0000
     10 C10        -2.2450    3.3999   -7.6241 C.ar      1 <0>         0.0000
     11 C11        -5.2280   -0.5178   -2.4715 C.2       1 <0>         0.0000
     12 C12        -5.5300    1.7633   -1.4856 C.3       1 <0>         0.0000
     13 C13        -0.3281    4.1549   -8.8122 C.3       1 <0>         0.0000
     14 C14        -5.7586    0.8950   -2.7396 C.3       1 <0>         0.0000
     15 O1         -4.2319   -0.7668   -1.8048 O.2       1 <0>         0.0000
     16 O2         -5.9742   -1.4889   -3.0614 O.3       1 <0>         0.0000
     17 O3         -1.7380    3.9414   -8.7654 O.3       1 <0>         0.0000
     18 H1         -6.1967    2.6088   -7.0304 H         1 <0>         0.0000
     19 H2         -1.2504    2.2796   -4.5832 H         1 <0>         0.0000
     20 H3         -7.1120    1.6255   -4.9586 H         1 <0>         0.0000
     21 H4         -0.3351    3.2629   -6.6550 H         1 <0>         0.0000
     22 H5         -3.1784    1.4730   -3.2768 H         1 <0>         0.0000
     23 H6         -4.2688    3.4152   -8.3368 H         1 <0>         0.0000
     24 H7         -5.9656    1.2630   -0.6081 H         1 <0>         0.0000
     25 H8         -4.4504    1.9039   -1.3289 H         1 <0>         0.0000
     26 H9         -6.0109    2.7428   -1.6253 H         1 <0>         0.0000
     27 H10        -0.0552    4.5938   -9.7832 H         1 <0>         0.0000
     28 H11        -0.0343    4.8411   -8.0042 H         1 <0>         0.0000
     29 H12         0.1925    3.1943   -8.6848 H         1 <0>         0.0000
     30 H13        -6.8471    0.8084   -2.8726 H         1 <0>         0.0000
     31 H14        -5.5975   -2.3394   -2.8685 H         1 <0>         0.0000
@<TRIPOS>BOND
     1    1    3 ar
     2    1    8 ar
     3    2    4 ar
     4    2    7 ar
     5    3    9 ar
     6    4   10 ar
     7    5    7 ar
     8    5    9 ar
     9    6    8 ar
    10    6   10 ar
    11    7    8 ar
    12    9   14 1
    13   10   17 1
    14   11   14 1
    15   11   15 2
    16   11   16 1
    17   12   14 1
    18   13   17 1
    19    1   18 1
    20    2   19 1
    21    3   20 1
    22    4   21 1
    23    5   22 1
    24    6   23 1
    25   12   24 1
    26   12   25 1
    27   12   26 1
    28   13   27 1
    29   13   28 1
    30   13   29 1
    31   14   30 1
    32   16   31 1
@<TRIPOS>MOLECULE
naproxen_4
   31    32     0     0     0
SMALL
NO_CHARGES

@<TRIPOS>ATOM
      1 C1         -7.0010   -1.0543   -9.0832 C.ar      1 <0>         0.0000
      2 C2         -5.0725   -0.0628   -6.0702 C.ar      1 <0>         0.0000
      3 C3         -8.0063   -0.0869   -9.0935 C.ar      1 <0>         0.0000
      4 C4         -4.0672   -1.0302   -6.0599 C.ar      1 <0>         0.0000
      5 C5         -7.0746    0.9043   -7.0992 C.ar      1 <0>         0.0000
      6 C6         -4.9990   -2.0215   -8.0541 C.ar      1 <0>         0.0000
      7 C7         -6.0554   -0.0616   -7.0733 C.ar      1 <0>         0.0000
      8 C8         -6.0181   -1.0555   -8.0801 C.ar      1 <0>         0.0000
      9 C9         -8.0430    0.8905   -8.1035 C.ar      1 <0>         0.0000
     10 C10        -4.0305   -2.0076   -7.0500 C.ar      1 <0>         0.0000
     11 C11       -10.0213    1.8496   -6.8801 C.2       1 <0>         0.0000
     12 C12        -8.5912    3.3655   -8.2672 C.3       1 <0>         0.0000
     13 C13        -2.0918   -2.8798   -5.9839 C.3       1 <0>         0.0000
     14 C14        -9.1182    1.9238   -8.1164 C.3       1 <0>         0.0000
     15 O1         -9.8292    2.4755   -5.8456 O.2       1 <0>         0.0000
     16 O2        -11.0714    1.0009   -7.0365 O.3       1 <0>         0.0000
     17 O3         -3.0496   -2.9513   -7.0389 O.3       1 <0>         0.0000
     18 H1         -6.9784   -1.8098   -9.8545 H         1 <0>         0.0000
     19 H2         -5.0950    0.6928   -5.2989 H         1 <0>         0.0000
     20 H3         -8.7565   -0.0966   -9.8703 H         1 <0>         0.0000
     21 H4         -3.3170   -1.0205   -5.2831 H         1 <0>         0.0000
     22 H5         -7.1091    1.6656   -6.3340 H         1 <0>         0.0000
     23 H6         -4.9646   -2.7828   -8.8193 H         1 <0>         0.0000
     24 H7         -9.4379    4.0677   -8.2684 H         1 <0>         0.0000
     25 H8         -7.9212    3.6005   -7.4270 H         1 <0>         0.0000
     26 H9         -8.0382    3.4564   -9.2137 H         1 <0>         0.0000
     27 H10        -1.3619   -3.6952   -6.0947 H         1 <0>         0.0000
     28 H11        -1.5700   -1.9124   -6.0276 H         1 <0>         0.0000
     29 H12        -2.6049   -2.9762   -5.0157 H         1 <0>         0.0000
     30 H13        -9.7554    1.7249   -8.9907 H         1 <0>         0.0000
     31 H14       -11.5910    0.9892   -6.2413 H         1 <0>         0.0000
@<TRIPOS>BOND
     1    1    3 ar
     2    1    8 ar
     3    2    4 ar
     4    2    7 ar
     5    3    9 ar
     6    4   10 ar
     7    5    7 ar
     8    5    9 ar
     9    6    8 ar
    10    6   10 ar
    11    7    8 ar
    12    9   14 1
    13   10   17 1
    14   11   14 1
    15   11   15 2
    16   11   16 1
    17   12   14 1
    18   13   17 1
    19    1   18 1
    20    2   19 1
    21    3   20 1
    22    4   21 1
    23    5   22 1
    24    6   23 1
    25   12   24 1
    26   12   25 1
    27   12   26 1
    28   13   27 1
    29   13   28 1
    30   13   29 1
    31   14   30 1
    32   16   31 1
@<TRIPOS>MOLECULE
naproxen_4
   31    32     0     0     0
SMALL
NO_CHARGES

@<TRIPOS>ATOM
      1 C1         -6.9547   -1.0616   -9.0246 C.ar      1 <0>         0.0000
      2 C2         -5.0729   -0.0321   -5.9949 C.ar      1 <0>         0.0000
      3 C3         -7.9657   -0.1007   -9.0568 C.ar      1 <0>         0.0000
      4 C4         -4.0619   -0.9930   -5.9628 C.ar      1 <0>         0.0000
      5 C5         -7.0670    0.9135   -7.0590 C.ar      1 <0>         0.0000
      6 C6         -4.9607   -2.0073   -7.9606 C.ar      1 <0>         0.0000
      7 C7         -6.0423   -0.0457   -7.0110 C.ar      1 <0>         0.0000
      8 C8         -5.9853   -1.0480   -8.0085 C.ar      1 <0>         0.0000
      9 C9         -8.0217    0.8849   -8.0759 C.ar      1 <0>         0.0000
     10 C10        -4.0059   -1.9787   -6.9437 C.ar      1 <0>         0.0000
     11 C11       -10.0220    1.8422   -6.8874 C.2       1 <0>         0.0000
     12 C12        -8.5829    3.3549   -8.2684 C.3       1 <0>         0.0000
     13 C13        -3.0217   -3.8970   -7.9474 C.3       1 <0>         0.0000
     14 C14        -9.1030    1.9114   -8.1122 C.3       1 <0>         0.0000
     15 O1         -9.8477    2.4781   -5.8560 O.2       1 <0>         0.0000
     16 O2        -11.0647    0.9855   -7.0505 O.3       1 <0>         0.0000
     17 O3         -3.0194   -2.9161   -6.9113 O.3       1 <0>         0.0000
     18 H1         -6.9171   -1.8236   -9.7890 H         1 <0>         0.0000
     19 H2         -5.1104    0.7299   -5.2306 H         1 <0>         0.0000
     20 H3         -8.7054   -0.1218   -9.8435 H         1 <0>         0.0000
     21 H4         -3.3222   -0.9719   -5.1762 H         1 <0>         0.0000
     22 H5         -7.1164    1.6811   -6.3009 H         1 <0>         0.0000
     23 H6         -4.9114   -2.7750   -8.7186 H         1 <0>         0.0000
     24 H7         -9.4338    4.0518   -8.2870 H         1 <0>         0.0000
     25 H8         -7.9257    3.6014   -7.4215 H         1 <0>         0.0000
     26 H9         -8.0178    3.4412   -9.2082 H         1 <0>         0.0000
     27 H10        -2.1775   -4.5870   -7.8016 H         1 <0>         0.0000
     28 H11        -3.9656   -4.4608   -7.9163 H         1 <0>         0.0000
     29 H12        -2.9238   -3.3993   -8.9235 H         1 <0>         0.0000
     30 H13        -9.7271    1.7009   -8.9931 H         1 <0>         0.0000
     31 H14       -11.5948    0.9774   -6.2622 H         1 <0>         0.0000
@<TRIPOS>BOND
     1    1    3 ar
     2    1    8 ar
     3    2    4 ar
     4    2    7 ar
     5    3    9 ar
     6    4   10 ar
     7    5    7 ar
     8    5    9 ar
     9    6    8 ar
    10    6   10 ar
    11    7    8 ar
    12    9   14 1
    13   10   17 1
    14   11   14 1
    15   11   15 2
    16   11   16 1
    17   12   14 1
    18   13   17 1
    19    1   18 1
    20    2   19 1
    21    3   20 1
    22    4   21 1
    23    5   22 1
    24    6   23 1
    25   12   24 1
    26   12   25 1
    27   12   26 1
    28   13   27 1
    29   13   28 1
    30   13   29 1
    31   14   30 1
    32   16   31 1
@<TRIPOS>MOLECULE
naproxen_4
   31    32     0     0     0
SMALL
NO_CHARGES

@<TRIPOS>ATOM
      1 C1         -7.5530   -1.5389   -8.1972 C.ar      1 <0>         0.0000
      2 C2         -4.3742    0.3442   -7.8379 C.ar      1 <0>         0.0000
      3 C3         -8.4853   -0.5010   -8.2020 C.ar      1 <0>         0.0000
      4 C4         -3.4420   -0.6937   -7.8331 C.ar      1 <0>         0.0000
      5 C5         -6.6994    1.1059   -7.9653 C.ar      1 <0>         0.0000
      6 C6         -5.2279   -2.3006   -8.0697 C.ar      1 <0>         0.0000
      7 C7         -5.7470    0.0738   -7.9587 C.ar      1 <0>         0.0000
      8 C8         -6.1802   -1.2684   -8.0764 C.ar      1 <0>         0.0000
      9 C9         -8.0594    0.8189   -8.0863 C.ar      1 <0>         0.0000
     10 C10        -3.8680   -2.0136   -7.9488 C.ar      1 <0>         0.0000
     11 C11       -10.1105    1.7767   -6.9884 C.2       1 <0>         0.0000
     12 C12        -8.4261    3.3309   -7.9955 C.3       1 <0>         0.0000
     13 C13        -1.5839   -2.6625   -7.8162 C.3       1 <0>         0.0000
     14 C14        -9.0574    1.9270   -8.0920 C.3       1 <0>         0.0000
     15 O1        -10.8550    0.8121   -6.8706 O.2       1 <0>         0.0000
     16 O2        -10.1499    2.8383   -6.1403 O.3       1 <0>         0.0000
     17 O3         -2.9578   -3.0257   -7.9435 O.3       1 <0>         0.0000
     18 H1         -7.8905   -2.5608   -8.2874 H         1 <0>         0.0000
     19 H2         -4.0367    1.3662   -7.7477 H         1 <0>         0.0000
     20 H3         -9.5383   -0.7219   -8.2956 H         1 <0>         0.0000
     21 H4         -2.3889   -0.4728   -7.7395 H         1 <0>         0.0000
     22 H5         -6.3757    2.1324   -7.8759 H         1 <0>         0.0000
     23 H6         -5.5516   -3.3270   -8.1590 H         1 <0>         0.0000
     24 H7         -9.2202    4.0920   -8.0054 H         1 <0>         0.0000
     25 H8         -7.8527    3.4114   -7.0602 H         1 <0>         0.0000
     26 H9         -7.7547    3.4905   -8.8521 H         1 <0>         0.0000
     27 H10        -0.9619   -3.5697   -7.8262 H         1 <0>         0.0000
     28 H11        -1.2973   -2.0123   -8.6559 H         1 <0>         0.0000
     29 H12        -1.4331   -2.1252   -6.8683 H         1 <0>         0.0000
     30 H13        -9.5917    1.8836   -9.0525 H         1 <0>         0.0000
     31 H14       -10.8216    2.6951   -5.4840 H         1 <0>         0.0000
@<TRIPOS>BOND
     1    1    3 ar
     2    1    8 ar
     3    2    4 ar
     4    2    7 ar
     5    3    9 ar
     6    4   10 ar
     7    5    7 ar
     8    5    9 ar
     9    6    8 ar
    10    6   10 ar
    11    7    8 ar
    12    9   14 1
    13   10   17 1
    14   11   14 1
    15   11   15 2
    16   11   16 1
    17   12   14 1
    18   13   17 1
    19    1   18 1
    20    2   19 1
    21    3   20 1
    22    4   21 1
    23    5   22 1
    24    6   23 1
    25   12   24 1
    26   12   25 1
    27   12   26 1
    28   13   27 1
    29   13   28 1
    30   13   29 1
    31   14   30 1
    32   16   31 1
@<TRIPOS>MOLECULE
naproxen_4
   31    32     0     0     0
SMALL
NO_CHARGES

@<TRIPOS>ATOM
      1 C1         -7.5236   -1.5186   -8.2010 C.ar      1 <0>         0.0000
      2 C2         -4.3590    0.3879   -7.8397 C.ar      1 <0>         0.0000
      3 C3         -8.4636   -0.4877   -8.2050 C.ar      1 <0>         0.0000
      4 C4         -3.4190   -0.6430   -7.8357 C.ar      1 <0>         0.0000
      5 C5         -6.6898    1.1323   -7.9667 C.ar      1 <0>         0.0000
      6 C6         -5.1928   -2.2630   -8.0739 C.ar      1 <0>         0.0000
      7 C7         -5.7297    0.1073   -7.9609 C.ar      1 <0>         0.0000
      8 C8         -6.1528   -1.2380   -8.0798 C.ar      1 <0>         0.0000
      9 C9         -8.0475    0.8352   -8.0880 C.ar      1 <0>         0.0000
     10 C10        -3.8351   -1.9660   -7.9526 C.ar      1 <0>         0.0000
     11 C11       -10.1058    1.7767   -6.9895 C.2       1 <0>         0.0000
     12 C12        -8.4330    3.3443   -7.9950 C.3       1 <0>         0.0000
     13 C13        -3.4130   -4.3034   -8.0717 C.3       1 <0>         0.0000
     14 C14        -9.0538    1.9358   -8.0928 C.3       1 <0>         0.0000
     15 O1        -10.8432    0.8064   -6.8726 O.2       1 <0>         0.0000
     16 O2        -10.1532    2.8372   -6.1405 O.3       1 <0>         0.0000
     17 O3         -2.9173   -2.9712   -7.9482 O.3       1 <0>         0.0000
     18 H1         -7.8534   -2.5430   -8.2921 H         1 <0>         0.0000
     19 H2         -4.0291    1.4123   -7.7486 H         1 <0>         0.0000
     20 H3         -9.5149   -0.7164   -8.2988 H         1 <0>         0.0000
     21 H4         -2.3676   -0.4143   -7.7419 H         1 <0>         0.0000
     22 H5         -6.3738    2.1610   -7.8763 H         1 <0>         0.0000
     23 H6         -5.5088   -3.2918   -8.1642 H         1 <0>         0.0000
     24 H7         -9.2328    4.0995   -8.0043 H         1 <0>         0.0000
     25 H8         -7.8604    3.4283   -7.0596 H         1 <0>         0.0000
     26 H9         -7.7628    3.5097   -8.8514 H         1 <0>         0.0000
     27 H10        -2.5714   -5.0114   -8.0538 H         1 <0>         0.0000
     28 H11        -4.0926   -4.5207   -7.2345 H         1 <0>         0.0000
     29 H12        -3.9575   -4.4052   -9.0220 H         1 <0>         0.0000
     30 H13        -9.5877    1.8893   -9.0534 H         1 <0>         0.0000
     31 H14       -10.8239    2.6884   -5.4843 H         1 <0>         0.0000
@<TRIPOS>BOND
     1    1    3 ar
     2    1    8 ar
     3    2    4 ar
     4    2    7 ar
     5    3    9 ar
     6    4   10 ar
     7    5    7 ar
     8    5    9 ar
     9    6    8 ar
    10    6   10 ar
    11    7    8 ar
    12    9   14 1
    13   10   17 1
    14   11   14 1
    15   11   15 2
    16   11   16 1
    17   12   14 1
    18   13   17 1
    19    1   18 1
    20    2   19 1
    21    3   20 1
    22    4   21 1
    23    5   22 1
    24    6   23 1
    25   12   24 1
    26   12   25 1
    27   12   26 1
    28   13   27 1
    29   13   28 1
    30   13   29 1
    31   14   30 1
    32   16   31 1
@<TRIPOS>MOLECULE
naproxen_4
   31    32     0     0     0
SMALL
NO_CHARGES

@<TRIPOS>ATOM
      1 C1         -6.0539   -0.0137   -6.9419 C.ar      1 <0>         0.0000
      2 C2         -6.8257   -2.0956   -9.9168 C.ar      1 <0>         0.0000
      3 C3         -7.0706    0.9396   -7.0054 C.ar      1 <0>         0.0000
      4 C4         -5.8090   -3.0489   -9.8531 C.ar      1 <0>         0.0000
      5 C5         -7.9332   -0.1117   -9.0000 C.ar      1 <0>         0.0000
      6 C6         -4.9463   -1.9975   -7.8587 C.ar      1 <0>         0.0000
      7 C7         -6.9166   -1.0795   -8.9515 C.ar      1 <0>         0.0000
      8 C8         -5.9629   -1.0298   -7.9071 C.ar      1 <0>         0.0000
      9 C9         -8.0084    0.8907   -8.0325 C.ar      1 <0>         0.0000
     10 C10        -4.8711   -2.9999   -8.8261 C.ar      1 <0>         0.0000
     11 C11       -10.0300    1.8538   -6.8856 C.2       1 <0>         0.0000
     12 C12        -8.5804    3.3544   -8.2690 C.3       1 <0>         0.0000
     13 C13        -2.9521   -3.8207   -7.6861 C.3       1 <0>         0.0000
     14 C14        -9.0946    1.9103   -8.0986 C.3       1 <0>         0.0000
     15 O1         -9.8733    2.5058   -5.8613 O.2       1 <0>         0.0000
     16 O2        -11.0657    0.9890   -7.0502 O.3       1 <0>         0.0000
     17 O3         -3.8792   -3.9301   -8.7650 O.3       1 <0>         0.0000
     18 H1         -5.3294    0.0301   -6.1421 H         1 <0>         0.0000
     19 H2         -7.5502   -2.1395  -10.7165 H         1 <0>         0.0000
     20 H3         -7.1298    1.7160   -6.2571 H         1 <0>         0.0000
     21 H4         -5.7497   -3.8254  -10.6014 H         1 <0>         0.0000
     22 H5         -8.6642   -0.1438   -9.7943 H         1 <0>         0.0000
     23 H6         -4.2152   -1.9653   -7.0644 H         1 <0>         0.0000
     24 H7         -9.4347    4.0461   -8.3094 H         1 <0>         0.0000
     25 H8         -7.9362    3.6170   -7.4169 H         1 <0>         0.0000
     26 H9         -8.0030    3.4301   -9.2022 H         1 <0>         0.0000
     27 H10        -2.2093   -4.6289   -7.7569 H         1 <0>         0.0000
     28 H11        -2.4414   -2.8479   -7.7388 H         1 <0>         0.0000
     29 H12        -3.4908   -3.9007   -6.7304 H         1 <0>         0.0000
     30 H13        -9.7055    1.6835   -8.9848 H         1 <0>         0.0000
     31 H14       -11.6065    0.9895   -6.2691 H         1 <0>         0.0000
@<TRIPOS>BOND
     1    1    3 ar
     2    1    8 ar
     3    2    4 ar
     4    2    7 ar
     5    3    9 ar
     6    4   10 ar
     7    5    7 ar
     8    5    9 ar
     9    6    8 ar
    10    6   10 ar
    11    7    8 ar
    12    9   14 1
    13   10   17 1
    14   11   14 1
    15   11   15 2
    16   11   16 1
    17   12   14 1
    18   13   17 1
    19    1   18 1
    20    2   19 1
    21    3   20 1
    22    4   21 1
    23    5   22 1
    24    6   23 1
    25   12   24 1
    26   12   25 1
    27   12   26 1
    28   13   27 1
    29   13   28 1
    30   13   29 1
    31   14   30 1
    32   16   31 1
@<TRIPOS>MOLECULE
naproxen_4
   31    32     0     0     0
SMALL
NO_CHARGES

@<TRIPOS>ATOM
      1 C1         -6.0616   -0.0374   -6.9542 C.ar      1 <0>         0.0000
      2 C2         -6.8490   -2.1041   -9.9355 C.ar      1 <0>         0.0000
      3 C3         -7.0729    0.9219   -7.0130 C.ar      1 <0>         0.0000
      4 C4         -5.8376   -3.0634   -9.8766 C.ar      1 <0>         0.0000
      5 C5         -7.9440   -0.1173   -9.0102 C.ar      1 <0>         0.0000
      6 C6         -4.9665   -2.0241   -7.8795 C.ar      1 <0>         0.0000
      7 C7         -6.9329   -1.0910   -8.9665 C.ar      1 <0>         0.0000
      8 C8         -5.9776   -1.0504   -7.9231 C.ar      1 <0>         0.0000
      9 C9         -8.0123    0.8820   -8.0391 C.ar      1 <0>         0.0000
     10 C10        -4.8982   -3.0235   -8.8505 C.ar      1 <0>         0.0000
     11 C11       -10.0270    1.8526   -6.8861 C.2       1 <0>         0.0000
     12 C12        -8.5705    3.3498   -8.2660 C.3       1 <0>         0.0000
     13 C13        -3.8994   -4.9526   -9.8184 C.3       1 <0>         0.0000
     14 C14        -9.0928    1.9081   -8.1001 C.3       1 <0>         0.0000
     15 O1         -9.8653    2.4999   -5.8597 O.2       1 <0>         0.0000
     16 O2        -11.0678    0.9942   -7.0525 O.3       1 <0>         0.0000
     17 O3         -3.9115   -3.9595   -8.7941 O.3       1 <0>         0.0000
     18 H1         -5.3359   -0.0005   -6.1552 H         1 <0>         0.0000
     19 H2         -7.5747   -2.1410  -10.7345 H         1 <0>         0.0000
     20 H3         -7.1268    1.6960   -6.2619 H         1 <0>         0.0000
     21 H4         -5.7837   -3.8375  -10.6277 H         1 <0>         0.0000
     22 H5         -8.6762   -0.1424   -9.8037 H         1 <0>         0.0000
     23 H6         -4.2342   -1.9989   -7.0860 H         1 <0>         0.0000
     24 H7         -9.4210    4.0465   -8.3028 H         1 <0>         0.0000
     25 H8         -7.9238    3.6056   -7.4138 H         1 <0>         0.0000
     26 H9         -7.9939    3.4256   -9.1996 H         1 <0>         0.0000
     27 H10        -3.0567   -5.6401   -9.6533 H         1 <0>         0.0000
     28 H11        -4.8433   -5.5169   -9.7930 H         1 <0>         0.0000
     29 H12        -3.7892   -4.4664  -10.7990 H         1 <0>         0.0000
     30 H13        -9.7061    1.6879   -8.9864 H         1 <0>         0.0000
     31 H14       -11.6075    0.9950   -6.2708 H         1 <0>         0.0000
@<TRIPOS>BOND
     1    1    3 ar
     2    1    8 ar
     3    2    4 ar
     4    2    7 ar
     5    3    9 ar
     6    4   10 ar
     7    5    7 ar
     8    5    9 ar
     9    6    8 ar
    10    6   10 ar
    11    7    8 ar
    12    9   14 1
    13   10   17 1
    14   11   14 1
    15   11   15 2
    16   11   16 1
    17   12   14 1
    18   13   17 1
    19    1   18 1
    20    2   19 1
    21    3   20 1
    22    4   21 1
    23    5   22 1
    24    6   23 1
    25   12   24 1
    26   12   25 1
    27   12   26 1
    28   13   27 1
    29   13   28 1
    30   13   29 1
    31   14   30 1
    32   16   31 1
@<TRIPOS>MOLECULE
naproxen_4
   31    32     0     0     0
SMALL
NO_CHARGES

@<TRIPOS>ATOM
      1 C1         -7.2807   -1.4163   -7.6901 C.ar      1 <0>         0.0000
      2 C2         -4.3026    0.7574   -8.1213 C.ar      1 <0>         0.0000
      3 C3         -8.3147   -0.4855   -7.7947 C.ar      1 <0>         0.0000
      4 C4         -3.2687   -0.1735   -8.0167 C.ar      1 <0>         0.0000
      5 C5         -6.6970    1.2771   -8.1166 C.ar      1 <0>         0.0000
      6 C6         -4.8865   -1.9361   -7.6947 C.ar      1 <0>         0.0000
      7 C7         -5.6436    0.3540   -8.0139 C.ar      1 <0>         0.0000
      8 C8         -5.9398   -1.0129   -7.7974 C.ar      1 <0>         0.0000
      9 C9         -8.0234    0.8586   -8.0075 C.ar      1 <0>         0.0000
     10 C10        -3.5601   -1.5176   -7.8038 C.ar      1 <0>         0.0000
     11 C11       -10.0423    1.8585   -6.8877 C.2       1 <0>         0.0000
     12 C12        -8.6466    3.2908   -8.3935 C.3       1 <0>         0.0000
     13 C13        -2.9205   -3.7857   -7.4834 C.3       1 <0>         0.0000
     14 C14        -9.1300    1.8520   -8.1194 C.3       1 <0>         0.0000
     15 O1         -9.6689    1.6040   -5.7499 O.2       1 <0>         0.0000
     16 O2        -11.3326    2.1699   -7.1810 O.3       1 <0>         0.0000
     17 O3         -2.5507   -2.4251   -7.7014 O.3       1 <0>         0.0000
     18 H1         -7.5139   -2.4578   -7.5250 H         1 <0>         0.0000
     19 H2         -4.0695    1.7989   -8.2865 H         1 <0>         0.0000
     20 H3         -9.3419   -0.8083   -7.7104 H         1 <0>         0.0000
     21 H4         -2.2415    0.1492   -8.1010 H         1 <0>         0.0000
     22 H5         -6.4780    2.3217   -8.2817 H         1 <0>         0.0000
     23 H6         -5.1055   -2.9806   -7.5295 H         1 <0>         0.0000
     24 H7         -9.5147    3.9628   -8.4628 H         1 <0>         0.0000
     25 H8         -7.9925    3.6203   -7.5728 H         1 <0>         0.0000
     26 H9         -8.0875    3.3154   -9.3405 H         1 <0>         0.0000
     27 H10        -2.0148   -4.4068   -7.4206 H         1 <0>         0.0000
     28 H11        -3.4857   -3.8657   -6.5431 H         1 <0>         0.0000
     29 H12        -3.5465   -4.1337   -8.3182 H         1 <0>         0.0000
     30 H13        -9.7521    1.5565   -8.9771 H         1 <0>         0.0000
     31 H14       -11.8517    2.1524   -6.3856 H         1 <0>         0.0000
@<TRIPOS>BOND
     1    1    3 ar
     2    1    8 ar
     3    2    4 ar
     4    2    7 ar
     5    3    9 ar
     6    4   10 ar
     7    5    7 ar
     8    5    9 ar
     9    6    8 ar
    10    6   10 ar
    11    7    8 ar
    12    9   14 1
    13   10   17 1
    14   11   14 1
    15   11   15 2
    16   11   16 1
    17   12   14 1
    18   13   17 1
    19    1   18 1
    20    2   19 1
    21    3   20 1
    22    4   21 1
    23    5   22 1
    24    6   23 1
    25   12   24 1
    26   12   25 1
    27   12   26 1
    28   13   27 1
    29   13   28 1
    30   13   29 1
    31   14   30 1
    32   16   31 1
@<TRIPOS>MOLECULE
naproxen_4
   31    32     0     0     0
SMALL
NO_CHARGES

@<TRIPOS>ATOM
      1 C1         -5.7125    0.2056   -8.0364 C.ar      1 <0>         0.0000
      2 C2         -7.8184   -2.8362   -8.3392 C.ar      1 <0>         0.0000
      3 C3         -6.6825    1.2083   -8.0244 C.ar      1 <0>         0.0000
      4 C4         -6.8484   -3.8389   -8.3511 C.ar      1 <0>         0.0000
      5 C5         -8.4137   -0.4625   -8.2211 C.ar      1 <0>         0.0000
      6 C6         -5.1172   -2.1680   -8.1545 C.ar      1 <0>         0.0000
      7 C7         -7.4509   -1.4848   -8.2347 C.ar      1 <0>         0.0000
      8 C8         -6.0800   -1.1458   -8.1409 C.ar      1 <0>         0.0000
      9 C9         -8.0305    0.8749   -8.1166 C.ar      1 <0>         0.0000
     10 C10        -5.5003   -3.5054   -8.2589 C.ar      1 <0>         0.0000
     11 C11       -10.0900    1.7644   -6.9778 C.2       1 <0>         0.0000
     12 C12        -8.4813    3.3730   -8.0224 C.3       1 <0>         0.0000
     13 C13        -3.1922   -4.0720   -8.1733 C.3       1 <0>         0.0000
     14 C14        -9.0659    1.9481   -8.1033 C.3       1 <0>         0.0000
     15 O1        -10.7983    0.7751   -6.8428 O.2       1 <0>         0.0000
     16 O2        -10.1482    2.8260   -6.1308 O.3       1 <0>         0.0000
     17 O3         -4.5546   -4.4843   -8.2712 O.3       1 <0>         0.0000
     18 H1         -4.6681    0.4714   -7.9645 H         1 <0>         0.0000
     19 H2         -8.8628   -3.1021   -8.4110 H         1 <0>         0.0000
     20 H3         -6.3870    2.2440   -7.9436 H         1 <0>         0.0000
     21 H4         -7.1438   -4.8746   -8.4319 H         1 <0>         0.0000
     22 H5         -9.4615   -0.7142   -8.2924 H         1 <0>         0.0000
     23 H6         -4.0693   -1.9163   -8.0834 H         1 <0>         0.0000
     24 H7         -9.3011    4.1065   -8.0169 H         1 <0>         0.0000
     25 H8         -7.8917    3.4755   -7.0994 H         1 <0>         0.0000
     26 H9         -7.8338    3.5536   -8.8931 H         1 <0>         0.0000
     27 H10        -2.5385   -4.9564   -8.1949 H         1 <0>         0.0000
     28 H11        -2.9467   -3.4139   -9.0198 H         1 <0>         0.0000
     29 H12        -3.0410   -3.5274   -7.2296 H         1 <0>         0.0000
     30 H13        -9.6183    1.8842   -9.0524 H         1 <0>         0.0000
     31 H14       -10.8007    2.6614   -5.4603 H         1 <0>         0.0000
@<TRIPOS>BOND
     1    1    3 ar
     2    1    8 ar
     3    2    4 ar
     4    2    7 ar
     5    3    9 ar
     6    4   10 ar
     7    5    7 ar
     8    5    9 ar
     9    6    8 ar
    10    6   10 ar
    11    7    8 ar
    12    9   14 1
    13   10   17 1
    14   11   14 1
    15   11   15 2
    16   11   16 1
    17   12   14 1
    18   13   17 1
    19    1   18 1
    20    2   19 1
    21    3   20 1
    22    4   21 1
    23    5   22 1
    24    6   23 1
    25   12   24 1
    26   12   25 1
    27   12   26 1
    28   13   27 1
    29   13   28 1
    30   13   29 1
    31   14   30 1
    32   16   31 1
@<TRIPOS>MOLECULE
naproxen_4
   31    32     0     0     0
SMALL
NO_CHARGES

@<TRIPOS>ATOM
      1 C1         -7.3455   -1.4377   -7.6889 C.ar      1 <0>         0.0000
      2 C2         -4.3229    0.6772   -8.1029 C.ar      1 <0>         0.0000
      3 C3         -8.3603   -0.4863   -7.7960 C.ar      1 <0>         0.0000
      4 C4         -3.3082   -0.2743   -7.9957 C.ar      1 <0>         0.0000
      5 C5         -6.7064    1.2444   -8.1075 C.ar      1 <0>         0.0000
      6 C6         -4.9620   -2.0050   -7.6842 C.ar      1 <0>         0.0000
      7 C7         -5.6721    0.3003   -8.0021 C.ar      1 <0>         0.0000
      8 C8         -5.9964   -1.0608   -7.7896 C.ar      1 <0>         0.0000
      9 C9         -8.0414    0.8521   -8.0049 C.ar      1 <0>         0.0000
     10 C10        -3.6271   -1.6128   -7.7868 C.ar      1 <0>         0.0000
     11 C11       -10.0449    1.8899   -6.8918 C.2       1 <0>         0.0000
     12 C12        -8.6145    3.2969   -8.3888 C.3       1 <0>         0.0000
     13 C13        -1.2936   -2.0716   -7.7955 C.3       1 <0>         0.0000
     14 C14        -9.1275    1.8676   -8.1196 C.3       1 <0>         0.0000
     15 O1         -9.6816    1.6258   -5.7530 O.2       1 <0>         0.0000
     16 O2        -11.3274    2.2273   -7.1901 O.3       1 <0>         0.0000
     17 O3         -2.6364   -2.5403   -7.6818 O.3       1 <0>         0.0000
     18 H1         -7.6000   -2.4747   -7.5268 H         1 <0>         0.0000
     19 H2         -4.0684    1.7141   -8.2650 H         1 <0>         0.0000
     20 H3         -9.3941   -0.7888   -7.7168 H         1 <0>         0.0000
     21 H4         -2.2744    0.0281   -8.0750 H         1 <0>         0.0000
     22 H5         -6.4660    2.2847   -8.2696 H         1 <0>         0.0000
     23 H6         -5.2025   -3.0453   -7.5219 H         1 <0>         0.0000
     24 H7         -9.4687    3.9862   -8.4605 H         1 <0>         0.0000
     25 H8         -7.9575    3.6118   -7.5646 H         1 <0>         0.0000
     26 H9         -8.0509    3.3123   -9.3333 H         1 <0>         0.0000
     27 H10        -0.5992   -2.9185   -7.6927 H         1 <0>         0.0000
     28 H11        -1.1523   -1.5990   -8.7787 H         1 <0>         0.0000
     29 H12        -1.0939   -1.3357   -7.0027 H         1 <0>         0.0000
     30 H13        -9.7517    1.5861   -8.9806 H         1 <0>         0.0000
     31 H14       -11.8502    2.2187   -6.3969 H         1 <0>         0.0000
@<TRIPOS>BOND
     1    1    3 ar
     2    1    8 ar
     3    2    4 ar
     4    2    7 ar
     5    3    9 ar
     6    4   10 ar
     7    5    7 ar
     8    5    9 ar
     9    6    8 ar
    10    6   10 ar
    11    7    8 ar
    12    9   14 1
    13   10   17 1
    14   11   14 1
    15   11   15 2
    16   11   16 1
    17   12   14 1
    18   13   17 1
    19    1   18 1
    20    2   19 1
    21    3   20 1
    22    4   21 1
    23    5   22 1
    24    6   23 1
    25   12   24 1
    26   12   25 1
    27   12   26 1
    28   13   27 1
    29   13   28 1
    30   13   29 1
    31   14   30 1
    32   16   31 1
@<TRIPOS>MOLECULE
naproxen_4
   31    32     0     0     0
SMALL
NO_CHARGES

@<TRIPOS>ATOM
      1 C1         -5.9145   -0.1494   -8.7605 C.ar      1 <0>         0.0000
      2 C2         -6.5714   -1.4025   -5.3286 C.ar      1 <0>         0.0000
      3 C3         -6.9886    0.7222   -8.9424 C.ar      1 <0>         0.0000
      4 C4         -5.4973   -2.2741   -5.1468 C.ar      1 <0>         0.0000
      5 C5         -7.7949    0.1921   -6.7296 C.ar      1 <0>         0.0000
      6 C6         -4.6910   -1.7441   -7.3596 C.ar      1 <0>         0.0000
      7 C7         -6.7201   -0.6893   -6.5293 C.ar      1 <0>         0.0000
      8 C8         -5.7658   -0.8626   -7.5599 C.ar      1 <0>         0.0000
      9 C9         -7.9270    0.8926   -7.9289 C.ar      1 <0>         0.0000
     10 C10        -4.5589   -2.4446   -6.1603 C.ar      1 <0>         0.0000
     11 C11       -10.0404    1.8285   -6.9351 C.2       1 <0>         0.0000
     12 C12        -8.6493    3.2758   -8.4307 C.3       1 <0>         0.0000
     13 C13        -3.4366   -3.9804   -4.7329 C.3       1 <0>         0.0000
     14 C14        -9.0742    1.8250   -8.1251 C.3       1 <0>         0.0000
     15 O1         -9.9572    2.5896   -5.9798 O.2       1 <0>         0.0000
     16 O2        -11.0126    0.8838   -7.0344 O.3       1 <0>         0.0000
     17 O3         -3.5115   -3.2955   -5.9823 O.3       1 <0>         0.0000
     18 H1         -5.1899   -0.2769   -9.5512 H         1 <0>         0.0000
     19 H2         -7.2959   -1.2750   -4.5380 H         1 <0>         0.0000
     20 H3         -7.0919    1.2650   -9.8704 H         1 <0>         0.0000
     21 H4         -5.3939   -2.8169   -4.2189 H         1 <0>         0.0000
     22 H5         -8.5268    0.3291   -5.9473 H         1 <0>         0.0000
     23 H6         -3.9592   -1.8811   -8.1420 H         1 <0>         0.0000
     24 H7         -9.5448    3.9008   -8.5622 H         1 <0>         0.0000
     25 H8         -8.0495    3.6658   -7.5952 H         1 <0>         0.0000
     26 H9         -8.0499    3.2956   -9.3529 H         1 <0>         0.0000
     27 H10        -2.5491   -4.6303   -4.7231 H         1 <0>         0.0000
     28 H11        -3.3628   -3.2468   -3.9166 H         1 <0>         0.0000
     29 H12        -4.3404   -4.5921   -4.5955 H         1 <0>         0.0000
     30 H13        -9.6420    1.4693   -8.9974 H         1 <0>         0.0000
     31 H14       -11.5758    0.9267   -6.2705 H         1 <0>         0.0000
@<TRIPOS>BOND
     1    1    3 ar
     2    1    8 ar
     3    2    4 ar
     4    2    7 ar
     5    3    9 ar
     6    4   10 ar
     7    5    7 ar
     8    5    9 ar
     9    6    8 ar
    10    6   10 ar
    11    7    8 ar
    12    9   14 1
    13   10   17 1
    14   11   14 1
    15   11   15 2
    16   11   16 1
    17   12   14 1
    18   13   17 1
    19    1   18 1
    20    2   19 1
    21    3   20 1
    22    4   21 1
    23    5   22 1
    24    6   23 1
    25   12   24 1
    26   12   25 1
    27   12   26 1
    28   13   27 1
    29   13   28 1
    30   13   29 1
    31   14   30 1
    32   16   31 1
@<TRIPOS>MOLECULE
naproxen_4
   31    32     0     0     0
SMALL
NO_CHARGES

@<TRIPOS>ATOM
      1 C1          5.2311    3.5172    4.3366 C.ar      1 <0>         0.0000
      2 C2          4.4628    5.6955    1.4307 C.ar      1 <0>         0.0000
      3 C3          4.0766    2.7369    4.4048 C.ar      1 <0>         0.0000
      4 C4          5.6173    6.4759    1.3626 C.ar      1 <0>         0.0000
      5 C5          3.1686    3.9119    2.5015 C.ar      1 <0>         0.0000
      6 C6          6.5252    5.3009    3.2659 C.ar      1 <0>         0.0000
      7 C7          4.3236    4.7065    2.4180 C.ar      1 <0>         0.0000
      8 C8          5.3702    4.5063    3.3493 C.ar      1 <0>         0.0000
      9 C9          3.0473    2.9338    3.4890 C.ar      1 <0>         0.0000
     10 C10         6.6465    6.2789    2.2784 C.ar      1 <0>         0.0000
     11 C11         0.5587    2.9267    3.8587 C.2       1 <0>         0.0000
     12 C12         1.5669    1.2443    2.3030 C.3       1 <0>         0.0000
     13 C13         7.8312    8.0230    1.1782 C.3       1 <0>         0.0000
     14 C14         1.8142    2.0985    3.5632 C.3       1 <0>         0.0000
     15 O1         -0.1673    3.4111    3.0003 O.2       1 <0>         0.0000
     16 O2          0.3251    3.0856    5.1883 O.3       1 <0>         0.0000
     17 O3          7.7724    7.0410    2.2116 O.3       1 <0>         0.0000
     18 H1          6.0259    3.3591    5.0505 H         1 <0>         0.0000
     19 H2          3.6679    5.8537    0.7168 H         1 <0>         0.0000
     20 H3          3.9815    1.9795    5.1688 H         1 <0>         0.0000
     21 H4          5.7124    7.2333    0.5986 H         1 <0>         0.0000
     22 H5          2.3661    4.0595    1.7940 H         1 <0>         0.0000
     23 H6          7.3277    5.1534    3.9735 H         1 <0>         0.0000
     24 H7          0.6445    0.6588    2.4315 H         1 <0>         0.0000
     25 H8          1.4639    1.9030    1.4281 H         1 <0>         0.0000
     26 H9          2.4160    0.5619    2.1503 H         1 <0>         0.0000
     27 H10         8.7876    8.5630    1.2388 H         1 <0>         0.0000
     28 H11         7.7505    7.5293    0.1985 H         1 <0>         0.0000
     29 H12         7.0006    8.7337    1.3002 H         1 <0>         0.0000
     30 H13         1.9409    1.3985    4.4022 H         1 <0>         0.0000
     31 H14        -0.4574    3.6098    5.3124 H         1 <0>         0.0000
@<TRIPOS>BOND
     1    1    3 ar
     2    1    8 ar
     3    2    4 ar
     4    2    7 ar
     5    3    9 ar
     6    4   10 ar
     7    5    7 ar
     8    5    9 ar
     9    6    8 ar
    10    6   10 ar
    11    7    8 ar
    12    9   14 1
    13   10   17 1
    14   11   14 1
    15   11   15 2
    16   11   16 1
    17   12   14 1
    18   13   17 1
    19    1   18 1
    20    2   19 1
    21    3   20 1
    22    4   21 1
    23    5   22 1
    24    6   23 1
    25   12   24 1
    26   12   25 1
    27   12   26 1
    28   13   27 1
    29   13   28 1
    30   13   29 1
    31   14   30 1
    32   16   31 1
@<TRIPOS>MOLECULE
naproxen_4
   31    32     0     0     0
SMALL
NO_CHARGES

@<TRIPOS>ATOM
      1 C1          5.2320    3.5495    4.3076 C.ar      1 <0>         0.0000
      2 C2          4.4370    5.7028    1.3902 C.ar      1 <0>         0.0000
      3 C3          4.0823    2.7631    4.3870 C.ar      1 <0>         0.0000
      4 C4          5.5866    6.4892    1.3109 C.ar      1 <0>         0.0000
      5 C5          3.1583    3.9194    2.4800 C.ar      1 <0>         0.0000
      6 C6          6.5106    5.3329    3.2180 C.ar      1 <0>         0.0000
      7 C7          4.3083    4.7200    2.3852 C.ar      1 <0>         0.0000
      8 C8          5.3606    4.5323    3.3127 C.ar      1 <0>         0.0000
      9 C9          3.0475    2.9477    3.4749 C.ar      1 <0>         0.0000
     10 C10         6.6215    6.3046    2.2230 C.ar      1 <0>         0.0000
     11 C11         0.5608    2.9290    3.8570 C.2       1 <0>         0.0000
     12 C12         1.5709    1.2414    2.3083 C.3       1 <0>         0.0000
     13 C13         8.7639    6.8303    3.1116 C.3       1 <0>         0.0000
     14 C14         1.8195    2.1059    3.5611 C.3       1 <0>         0.0000
     15 O1         -0.1722    3.4032    2.9988 O.2       1 <0>         0.0000
     16 O2          0.3328    3.0960    5.1866 O.3       1 <0>         0.0000
     17 O3          7.7426    7.0726    2.1452 O.3       1 <0>         0.0000
     18 H1          6.0312    3.4010    5.0187 H         1 <0>         0.0000
     19 H2          3.6377    5.8513    0.6791 H         1 <0>         0.0000
     20 H3          3.9953    2.0106    5.1568 H         1 <0>         0.0000
     21 H4          5.6736    7.2417    0.5411 H         1 <0>         0.0000
     22 H5          2.3515    4.0574    1.7755 H         1 <0>         0.0000
     23 H6          7.3174    5.1950    3.9226 H         1 <0>         0.0000
     24 H7          0.6526    0.6516    2.4455 H         1 <0>         0.0000
     25 H8          1.4599    1.8933    1.4293 H         1 <0>         0.0000
     26 H9          2.4231    0.5627    2.1562 H         1 <0>         0.0000
     27 H10         9.6065    7.5150    2.9348 H         1 <0>         0.0000
     28 H11         8.3606    6.9984    4.1211 H         1 <0>         0.0000
     29 H12         9.1119    5.7905    3.0242 H         1 <0>         0.0000
     30 H13         1.9543    1.4126    4.4045 H         1 <0>         0.0000
     31 H14        -0.4521    3.6166    5.3108 H         1 <0>         0.0000
@<TRIPOS>BOND
     1    1    3 ar
     2    1    8 ar
     3    2    4 ar
     4    2    7 ar
     5    3    9 ar
     6    4   10 ar
     7    5    7 ar
     8    5    9 ar
     9    6    8 ar
    10    6   10 ar
    11    7    8 ar
    12    9   14 1
    13   10   17 1
    14   11   14 1
    15   11   15 2
    16   11   16 1
    17   12   14 1
    18   13   17 1
    19    1   18 1
    20    2   19 1
    21    3   20 1
    22    4   21 1
    23    5   22 1
    24    6   23 1
    25   12   24 1
    26   12   25 1
    27   12   26 1
    28   13   27 1
    29   13   28 1
    30   13   29 1
    31   14   30 1
    32   16   31 1
@<TRIPOS>MOLECULE
naproxen_4
   31    32     0     0     0
SMALL
NO_CHARGES

@<TRIPOS>ATOM
      1 C1          5.4293    3.1142    3.1348 C.ar      1 <0>         0.0000
      2 C2          4.0221    6.5255    3.5382 C.ar      1 <0>         0.0000
      3 C3          4.2798    2.3310    3.2427 C.ar      1 <0>         0.0000
      4 C4          5.1716    7.3087    3.4303 C.ar      1 <0>         0.0000
      5 C5          2.9500    4.3225    3.5476 C.ar      1 <0>         0.0000
      6 C6          6.5014    5.3172    3.1255 C.ar      1 <0>         0.0000
      7 C7          4.0966    5.1265    3.4412 C.ar      1 <0>         0.0000
      8 C8          5.3548    4.5133    3.2318 C.ar      1 <0>         0.0000
      9 C9          3.0425    2.9340    3.4487 C.ar      1 <0>         0.0000
     10 C10         6.4089    6.7057    3.2243 C.ar      1 <0>         0.0000
     11 C11         0.5605    2.9245    3.8602 C.2       1 <0>         0.0000
     12 C12         1.5508    1.2099    2.3284 C.3       1 <0>         0.0000
     13 C13         8.7647    6.7874    2.9090 C.3       1 <0>         0.0000
     14 C14         1.8149    2.0951    3.5635 C.3       1 <0>         0.0000
     15 O1         -0.1821    3.3850    3.0027 O.2       1 <0>         0.0000
     16 O2          0.3482    3.1141    5.1894 O.3       1 <0>         0.0000
     17 O3          7.5300    7.4706    3.1196 O.3       1 <0>         0.0000
     18 H1          6.3862    2.6398    2.9750 H         1 <0>         0.0000
     19 H2          3.0652    7.0000    3.6980 H         1 <0>         0.0000
     20 H3          4.3501    1.2560    3.1664 H         1 <0>         0.0000
     21 H4          5.1013    8.3837    3.5066 H         1 <0>         0.0000
     22 H5          1.9867    4.7839    3.7075 H         1 <0>         0.0000
     23 H6          7.4647    4.8557    2.9658 H         1 <0>         0.0000
     24 H7          0.6336    0.6235    2.4863 H         1 <0>         0.0000
     25 H8          1.4301    1.8470    1.4399 H         1 <0>         0.0000
     26 H9          2.4005    0.5278    2.1778 H         1 <0>         0.0000
     27 H10         9.5830    7.5196    2.8434 H         1 <0>         0.0000
     28 H11         8.9524    6.1022    3.7488 H         1 <0>         0.0000
     29 H12         8.7107    6.2132    1.9723 H         1 <0>         0.0000
     30 H13         1.9589    1.4160    4.4168 H         1 <0>         0.0000
     31 H14        -0.4347    3.6376    5.3140 H         1 <0>         0.0000
@<TRIPOS>BOND
     1    1    3 ar
     2    1    8 ar
     3    2    4 ar
     4    2    7 ar
     5    3    9 ar
     6    4   10 ar
     7    5    7 ar
     8    5    9 ar
     9    6    8 ar
    10    6   10 ar
    11    7    8 ar
    12    9   14 1
    13   10   17 1
    14   11   14 1
    15   11   15 2
    16   11   16 1
    17   12   14 1
    18   13   17 1
    19    1   18 1
    20    2   19 1
    21    3   20 1
    22    4   21 1
    23    5   22 1
    24    6   23 1
    25   12   24 1
    26   12   25 1
    27   12   26 1
    28   13   27 1
    29   13   28 1
    30   13   29 1
    31   14   30 1
    32   16   31 1
@<TRIPOS>MOLECULE
naproxen_4
   31    32     0     0     0
SMALL
NO_CHARGES

@<TRIPOS>ATOM
      1 C1          4.0048    5.2235    3.4667 C.ar      1 <0>         0.0000
      2 C2          6.7017    2.7299    2.9298 C.ar      1 <0>         0.0000
      3 C3          2.8854    4.3968    3.5663 C.ar      1 <0>         0.0000
      4 C4          7.8210    3.5566    2.8301 C.ar      1 <0>         0.0000
      5 C5          4.2872    2.4580    3.2446 C.ar      1 <0>         0.0000
      6 C6          6.4192    5.4954    3.1517 C.ar      1 <0>         0.0000
      7 C7          5.4249    3.2750    3.1419 C.ar      1 <0>         0.0000
      8 C8          5.2815    4.6784    3.2545 C.ar      1 <0>         0.0000
      9 C9          3.0263    3.0167    3.4555 C.ar      1 <0>         0.0000
     10 C10         7.6801    4.9368    2.9409 C.ar      1 <0>         0.0000
     11 C11         0.5461    2.9172    3.8660 C.2       1 <0>         0.0000
     12 C12         1.5956    1.2514    2.3199 C.3       1 <0>         0.0000
     13 C13         8.5562    7.1476    2.9659 C.3       1 <0>         0.0000
     14 C14         1.8286    2.1346    3.5627 C.3       1 <0>         0.0000
     15 O1         -0.2120    3.3589    3.0123 O.2       1 <0>         0.0000
     16 O2          0.3273    3.0880    5.1967 O.3       1 <0>         0.0000
     17 O3          8.7727    5.7427    2.8431 O.3       1 <0>         0.0000
     18 H1          3.8882    6.2937    3.5536 H         1 <0>         0.0000
     19 H2          6.8182    1.6597    2.8429 H         1 <0>         0.0000
     20 H3          1.9088    4.8281    3.7295 H         1 <0>         0.0000
     21 H4          8.7976    3.1253    2.6669 H         1 <0>         0.0000
     22 H5          4.3894    1.3862    3.1595 H         1 <0>         0.0000
     23 H6          6.3169    6.5672    3.2367 H         1 <0>         0.0000
     24 H7          0.6994    0.6321    2.4724 H         1 <0>         0.0000
     25 H8          1.4528    1.8915    1.4368 H         1 <0>         0.0000
     26 H9          2.4686    0.6006    2.1638 H         1 <0>         0.0000
     27 H10         9.5156    7.6768    2.8683 H         1 <0>         0.0000
     28 H11         7.8701    7.4833    2.1744 H         1 <0>         0.0000
     29 H12         8.1157    7.3659    3.9500 H         1 <0>         0.0000
     30 H13         1.9962    1.4536    4.4101 H         1 <0>         0.0000
     31 H14        -0.4734    3.5828    5.3255 H         1 <0>         0.0000
@<TRIPOS>BOND
     1    1    3 ar
     2    1    8 ar
     3    2    4 ar
     4    2    7 ar
     5    3    9 ar
     6    4   10 ar
     7    5    7 ar
     8    5    9 ar
     9    6    8 ar
    10    6   10 ar
    11    7    8 ar
    12    9   14 1
    13   10   17 1
    14   11   14 1
    15   11   15 2
    16   11   16 1
    17   12   14 1
    18   13   17 1
    19    1   18 1
    20    2   19 1
    21    3   20 1
    22    4   21 1
    23    5   22 1
    24    6   23 1
    25   12   24 1
    26   12   25 1
    27   12   26 1
    28   13   27 1
    29   13   28 1
    30   13   29 1
    31   14   30 1
    32   16   31 1
@<TRIPOS>MOLECULE
naproxen_4
   31    32     0     0     0
SMALL
NO_CHARGES

@<TRIPOS>ATOM
      1 C1          5.4341    3.1046    3.1612 C.ar      1 <0>         0.0000
      2 C2          4.0347    6.5175    3.5786 C.ar      1 <0>         0.0000
      3 C3          4.2817    2.3241    3.2576 C.ar      1 <0>         0.0000
      4 C4          5.1871    7.2979    3.4822 C.ar      1 <0>         0.0000
      5 C5          2.9561    4.3176    3.5678 C.ar      1 <0>         0.0000
      6 C6          6.5128    5.3044    3.1721 C.ar      1 <0>         0.0000
      7 C7          4.1056    5.1188    3.4731 C.ar      1 <0>         0.0000
      8 C8          5.3632    4.5033    3.2668 C.ar      1 <0>         0.0000
      9 C9          3.0451    2.9295    3.4605 C.ar      1 <0>         0.0000
     10 C10         6.4238    6.6926    3.2793 C.ar      1 <0>         0.0000
     11 C11         0.5608    2.9247    3.8580 C.2       1 <0>         0.0000
     12 C12         1.5547    1.2171    2.3208 C.3       1 <0>         0.0000
     13 C13         7.3859    8.8673    3.3047 C.3       1 <0>         0.0000
     14 C14         1.8144    2.0935    3.5630 C.3       1 <0>         0.0000
     15 O1         -0.1756    3.3929    2.9994 O.2       1 <0>         0.0000
     16 O2          0.3416    3.1065    5.1871 O.3       1 <0>         0.0000
     17 O3          7.5477    7.4548    3.1858 O.3       1 <0>         0.0000
     18 H1          6.3905    2.6284    3.0037 H         1 <0>         0.0000
     19 H2          3.0783    6.9938    3.7361 H         1 <0>         0.0000
     20 H3          4.3494    1.2494    3.1748 H         1 <0>         0.0000
     21 H4          5.1195    8.3726    3.5650 H         1 <0>         0.0000
     22 H5          1.9933    4.7809    3.7253 H         1 <0>         0.0000
     23 H6          7.4756    4.8412    3.0148 H         1 <0>         0.0000
     24 H7          0.6349    0.6324    2.4697 H         1 <0>         0.0000
     25 H8          1.4408    1.8602    1.4357 H         1 <0>         0.0000
     26 H9          2.4032    0.5334    2.1706 H         1 <0>         0.0000
     27 H10         8.3658    9.3583    3.2111 H         1 <0>         0.0000
     28 H11         6.7178    9.2280    2.5088 H         1 <0>         0.0000
     29 H12         6.9491    9.1049    4.2858 H         1 <0>         0.0000
     30 H13         1.9516    1.4085    4.4127 H         1 <0>         0.0000
     31 H14        -0.4405    3.6315    5.3107 H         1 <0>         0.0000
@<TRIPOS>BOND
     1    1    3 ar
     2    1    8 ar
     3    2    4 ar
     4    2    7 ar
     5    3    9 ar
     6    4   10 ar
     7    5    7 ar
     8    5    9 ar
     9    6    8 ar
    10    6   10 ar
    11    7    8 ar
    12    9   14 1
    13   10   17 1
    14   11   14 1
    15   11   15 2
    16   11   16 1
    17   12   14 1
    18   13   17 1
    19    1   18 1
    20    2   19 1
    21    3   20 1
    22    4   21 1
    23    5   22 1
    24    6   23 1
    25   12   24 1
    26   12   25 1
    27   12   26 1
    28   13   27 1
    29   13   28 1
    30   13   29 1
    31   14   30 1
    32   16   31 1
@<TRIPOS>MOLECULE
naproxen_4
   31    32     0     0     0
SMALL
NO_CHARGES

@<TRIPOS>ATOM
      1 C1          4.0089    5.2254    3.4922 C.ar      1 <0>         0.0000
      2 C2          6.7063    2.7325    2.9547 C.ar      1 <0>         0.0000
      3 C3          2.8885    4.3991    3.5828 C.ar      1 <0>         0.0000
      4 C4          7.8267    3.5589    2.8641 C.ar      1 <0>         0.0000
      5 C5          4.2903    2.4608    3.2576 C.ar      1 <0>         0.0000
      6 C6          6.4249    5.4971    3.1892 C.ar      1 <0>         0.0000
      7 C7          5.4290    3.2775    3.1639 C.ar      1 <0>         0.0000
      8 C8          5.2862    4.6805    3.2829 C.ar      1 <0>         0.0000
      9 C9          3.0289    3.0195    3.4657 C.ar      1 <0>         0.0000
     10 C10         7.6863    4.9385    2.9811 C.ar      1 <0>         0.0000
     11 C11         0.5468    2.9198    3.8648 C.2       1 <0>         0.0000
     12 C12         1.6019    1.2609    2.3151 C.3       1 <0>         0.0000
     13 C13        10.0390    5.1082    2.6783 C.3       1 <0>         0.0000
     14 C14         1.8301    2.1377    3.5632 C.3       1 <0>         0.0000
     15 O1         -0.2072    3.3664    3.0100 O.2       1 <0>         0.0000
     16 O2          0.3223    3.0841    5.1954 O.3       1 <0>         0.0000
     17 O3          8.7799    5.7441    2.8921 O.3       1 <0>         0.0000
     18 H1          3.8928    6.2953    3.5840 H         1 <0>         0.0000
     19 H2          6.8225    1.6626    2.8630 H         1 <0>         0.0000
     20 H3          1.9115    4.8303    3.7439 H         1 <0>         0.0000
     21 H4          8.8037    3.1276    2.7030 H         1 <0>         0.0000
     22 H5          4.3921    1.3894    3.1676 H         1 <0>         0.0000
     23 H6          6.3231    6.5685    3.2790 H         1 <0>         0.0000
     24 H7          0.7045    0.6415    2.4606 H         1 <0>         0.0000
     25 H8          1.4634    1.9055    1.4346 H         1 <0>         0.0000
     26 H9          2.4751    0.6103    2.1596 H         1 <0>         0.0000
     27 H10        10.8310    5.8698    2.6265 H         1 <0>         0.0000
     28 H11        10.2473    4.4187    3.5097 H         1 <0>         0.0000
     29 H12        10.0096    4.5452    1.7337 H         1 <0>         0.0000
     30 H13         1.9934    1.4525    4.4080 H         1 <0>         0.0000
     31 H14        -0.4786    3.5789    5.3231 H         1 <0>         0.0000
@<TRIPOS>BOND
     1    1    3 ar
     2    1    8 ar
     3    2    4 ar
     4    2    7 ar
     5    3    9 ar
     6    4   10 ar
     7    5    7 ar
     8    5    9 ar
     9    6    8 ar
    10    6   10 ar
    11    7    8 ar
    12    9   14 1
    13   10   17 1
    14   11   14 1
    15   11   15 2
    16   11   16 1
    17   12   14 1
    18   13   17 1
    19    1   18 1
    20    2   19 1
    21    3   20 1
    22    4   21 1
    23    5   22 1
    24    6   23 1
    25   12   24 1
    26   12   25 1
    27   12   26 1
    28   13   27 1
    29   13   28 1
    30   13   29 1
    31   14   30 1
    32   16   31 1
@<TRIPOS>MOLECULE
naproxen_4
   31    32     0     0     0
SMALL
NO_CHARGES

@<TRIPOS>ATOM
      1 C1          4.6091    4.3911    4.7496 C.ar      1 <0>         0.0000
      2 C2          5.7193    4.1724    1.2141 C.ar      1 <0>         0.0000
      3 C3          3.4661    3.5913    4.7261 C.ar      1 <0>         0.0000
      4 C4          6.8622    4.9721    1.2377 C.ar      1 <0>         0.0000
      5 C5          3.8077    3.1704    2.3737 C.ar      1 <0>         0.0000
      6 C6          6.5206    5.3932    3.5901 C.ar      1 <0>         0.0000
      7 C7          4.9608    3.9720    2.3790 C.ar      1 <0>         0.0000
      8 C8          5.3675    4.5915    3.5847 C.ar      1 <0>         0.0000
      9 C9          3.0662    2.9822    3.5404 C.ar      1 <0>         0.0000
     10 C10         7.2621    5.5814    2.4234 C.ar      1 <0>         0.0000
     11 C11         0.5936    2.8749    3.9931 C.2       1 <0>         0.0000
     12 C12         1.5570    1.4931    2.1411 C.3       1 <0>         0.0000
     13 C13         9.0883    6.5126    1.2178 C.3       1 <0>         0.0000
     14 C14         1.8444    2.1274    3.5173 C.3       1 <0>         0.0000
     15 O1          0.4766    3.3943    5.0954 O.2       1 <0>         0.0000
     16 O2         -0.3981    2.9010    3.0638 O.3       1 <0>         0.0000
     17 O3          8.3771    6.3619    2.4454 O.3       1 <0>         0.0000
     18 H1          4.9137    4.8608    5.6731 H         1 <0>         0.0000
     19 H2          5.4146    3.7026    0.2906 H         1 <0>         0.0000
     20 H3          2.8913    3.4449    5.6286 H         1 <0>         0.0000
     21 H4          7.4371    5.1186    0.3352 H         1 <0>         0.0000
     22 H5          3.4917    2.6947    1.4570 H         1 <0>         0.0000
     23 H6          6.8365    5.8689    4.5067 H         1 <0>         0.0000
     24 H7          0.6456    0.8803    2.2024 H         1 <0>         0.0000
     25 H8          1.4148    2.2877    1.3939 H         1 <0>         0.0000
     26 H9          2.4058    0.8591    1.8453 H         1 <0>         0.0000
     27 H10         9.9610    7.1631    1.3766 H         1 <0>         0.0000
     28 H11         9.4254    5.5264    0.8660 H         1 <0>         0.0000
     29 H12         8.4267    6.9644    0.4640 H         1 <0>         0.0000
     30 H13         2.0093    1.2985    4.2215 H         1 <0>         0.0000
     31 H14        -1.1476    3.3687    3.4130 H         1 <0>         0.0000
@<TRIPOS>BOND
     1    1    3 ar
     2    1    8 ar
     3    2    4 ar
     4    2    7 ar
     5    3    9 ar
     6    4   10 ar
     7    5    7 ar
     8    5    9 ar
     9    6    8 ar
    10    6   10 ar
    11    7    8 ar
    12    9   14 1
    13   10   17 1
    14   11   14 1
    15   11   15 2
    16   11   16 1
    17   12   14 1
    18   13   17 1
    19    1   18 1
    20    2   19 1
    21    3   20 1
    22    4   21 1
    23    5   22 1
    24    6   23 1
    25   12   24 1
    26   12   25 1
    27   12   26 1
    28   13   27 1
    29   13   28 1
    30   13   29 1
    31   14   30 1
    32   16   31 1
@<TRIPOS>MOLECULE
naproxen_4
   31    32     0     0     0
SMALL
NO_CHARGES

@<TRIPOS>ATOM
      1 C1          4.6197    4.3911    4.7113 C.ar      1 <0>         0.0000
      2 C2          5.7094    4.1257    1.1726 C.ar      1 <0>         0.0000
      3 C3          3.4737    3.5955    4.7037 C.ar      1 <0>         0.0000
      4 C4          6.8554    4.9214    1.1802 C.ar      1 <0>         0.0000
      5 C5          3.8006    3.1449    2.3547 C.ar      1 <0>         0.0000
      6 C6          6.5284    5.3721    3.5291 C.ar      1 <0>         0.0000
      7 C7          4.9567    3.9422    2.3440 C.ar      1 <0>         0.0000
      8 C8          5.3724    4.5747    3.5399 C.ar      1 <0>         0.0000
      9 C9          3.0650    2.9735    3.5277 C.ar      1 <0>         0.0000
     10 C10         7.2641    5.5434    2.3562 C.ar      1 <0>         0.0000
     11 C11         0.5946    2.8809    3.9953 C.2       1 <0>         0.0000
     12 C12         1.5425    1.4734    2.1549 C.3       1 <0>         0.0000
     13 C13         8.7435    6.9274    3.6019 C.3       1 <0>         0.0000
     14 C14         1.8399    2.1231    3.5217 C.3       1 <0>         0.0000
     15 O1          0.4856    3.4141    5.0919 O.2       1 <0>         0.0000
     16 O2         -0.4022    2.8996    3.0713 O.3       1 <0>         0.0000
     17 O3          8.3820    6.3199    2.3626 O.3       1 <0>         0.0000
     18 H1          4.9313    4.8708    5.6273 H         1 <0>         0.0000
     19 H2          5.3979    3.6460    0.2565 H         1 <0>         0.0000
     20 H3          2.9034    3.4621    5.6111 H         1 <0>         0.0000
     21 H4          7.4257    5.0548    0.2728 H         1 <0>         0.0000
     22 H5          3.4778    2.6594    1.4456 H         1 <0>         0.0000
     23 H6          6.8512    5.8576    4.4382 H         1 <0>         0.0000
     24 H7          0.6292    0.8648    2.2286 H         1 <0>         0.0000
     25 H8          1.3992    2.2594    1.3989 H         1 <0>         0.0000
     26 H9          2.3873    0.8327    1.8620 H         1 <0>         0.0000
     27 H10         9.6586    7.5224    3.4661 H         1 <0>         0.0000
     28 H11         7.9273    7.5823    3.9409 H         1 <0>         0.0000
     29 H12         8.9230    6.1456    4.3547 H         1 <0>         0.0000
     30 H13         2.0057    1.3022    4.2349 H         1 <0>         0.0000
     31 H14        -1.1480    3.3743    3.4190 H         1 <0>         0.0000
@<TRIPOS>BOND
     1    1    3 ar
     2    1    8 ar
     3    2    4 ar
     4    2    7 ar
     5    3    9 ar
     6    4   10 ar
     7    5    7 ar
     8    5    9 ar
     9    6    8 ar
    10    6   10 ar
    11    7    8 ar
    12    9   14 1
    13   10   17 1
    14   11   14 1
    15   11   15 2
    16   11   16 1
    17   12   14 1
    18   13   17 1
    19    1   18 1
    20    2   19 1
    21    3   20 1
    22    4   21 1
    23    5   22 1
    24    6   23 1
    25   12   24 1
    26   12   25 1
    27   12   26 1
    28   13   27 1
    29   13   28 1
    30   13   29 1
    31   14   30 1
    32   16   31 1
@<TRIPOS>MOLECULE
naproxen_4
   31    32     0     0     0
SMALL
NO_CHARGES

@<TRIPOS>ATOM
      1 C1          5.2600    3.5253    4.3288 C.ar      1 <0>         0.0000
      2 C2          4.5050    5.6879    1.4076 C.ar      1 <0>         0.0000
      3 C3          4.0985    2.7564    4.4058 C.ar      1 <0>         0.0000
      4 C4          5.6666    6.4568    1.3307 C.ar      1 <0>         0.0000
      5 C5          3.1969    3.9249    2.4955 C.ar      1 <0>         0.0000
      6 C6          6.5681    5.2884    3.2410 C.ar      1 <0>         0.0000
      7 C7          4.3590    4.7080    2.4030 C.ar      1 <0>         0.0000
      8 C8          5.4060    4.5052    3.3334 C.ar      1 <0>         0.0000
      9 C9          3.0689    2.9558    3.4909 C.ar      1 <0>         0.0000
     10 C10         6.6962    6.2574    2.2456 C.ar      1 <0>         0.0000
     11 C11         0.5812    2.9748    3.8666 C.2       1 <0>         0.0000
     12 C12         1.5698    1.2709    2.3218 C.3       1 <0>         0.0000
     13 C13         7.8945    7.9817    1.1289 C.3       1 <0>         0.0000
     14 C14         1.8282    2.1326    3.5746 C.3       1 <0>         0.0000
     15 O1          0.5842    4.1923    3.9948 O.2       1 <0>         0.0000
     16 O2         -0.5504    2.2305    3.9820 O.3       1 <0>         0.0000
     17 O3          7.8290    7.0084    2.1701 O.3       1 <0>         0.0000
     18 H1          6.0551    3.3653    5.0420 H         1 <0>         0.0000
     19 H2          3.7100    5.8479    0.6944 H         1 <0>         0.0000
     20 H3          3.9982    2.0059    5.1759 H         1 <0>         0.0000
     21 H4          5.7669    7.2073    0.5606 H         1 <0>         0.0000
     22 H5          2.3940    4.0745    1.7888 H         1 <0>         0.0000
     23 H6          7.3709    5.1389    3.9479 H         1 <0>         0.0000
     24 H7          0.6423    0.6951    2.4571 H         1 <0>         0.0000
     25 H8          1.4709    1.9237    1.4420 H         1 <0>         0.0000
     26 H9          2.4121    0.5794    2.1724 H         1 <0>         0.0000
     27 H10         8.8560    8.5131    1.1830 H         1 <0>         0.0000
     28 H11         7.8067    7.4811    0.1533 H         1 <0>         0.0000
     29 H12         7.0708    8.7011    1.2473 H         1 <0>         0.0000
     30 H13         1.9503    1.4381    4.4188 H         1 <0>         0.0000
     31 H14        -1.2871    2.8005    4.1687 H         1 <0>         0.0000
@<TRIPOS>BOND
     1    1    3 ar
     2    1    8 ar
     3    2    4 ar
     4    2    7 ar
     5    3    9 ar
     6    4   10 ar
     7    5    7 ar
     8    5    9 ar
     9    6    8 ar
    10    6   10 ar
    11    7    8 ar
    12    9   14 1
    13   10   17 1
    14   11   14 1
    15   11   15 2
    16   11   16 1
    17   12   14 1
    18   13   17 1
    19    1   18 1
    20    2   19 1
    21    3   20 1
    22    4   21 1
    23    5   22 1
    24    6   23 1
    25   12   24 1
    26   12   25 1
    27   12   26 1
    28   13   27 1
    29   13   28 1
    30   13   29 1
    31   14   30 1
    32   16   31 1
@<TRIPOS>MOLECULE
naproxen_4
   31    32     0     0     0
SMALL
NO_CHARGES

@<TRIPOS>ATOM
      1 C1          5.2654    3.5473    4.2912 C.ar      1 <0>         0.0000
      2 C2          4.4597    5.7061    1.3809 C.ar      1 <0>         0.0000
      3 C3          4.1103    2.7702    4.3819 C.ar      1 <0>         0.0000
      4 C4          5.6149    6.4832    1.2903 C.ar      1 <0>         0.0000
      5 C5          3.1773    3.9334    2.4835 C.ar      1 <0>         0.0000
      6 C6          6.5478    5.3200    3.1888 C.ar      1 <0>         0.0000
      7 C7          4.3327    4.7247    2.3774 C.ar      1 <0>         0.0000
      8 C8          5.3924    4.5287    3.2948 C.ar      1 <0>         0.0000
      9 C9          3.0682    2.9629    3.4798 C.ar      1 <0>         0.0000
     10 C10         6.6569    6.2905    2.1925 C.ar      1 <0>         0.0000
     11 C11         0.5853    2.9643    3.8858 C.2       1 <0>         0.0000
     12 C12         1.5668    1.2682    2.3280 C.3       1 <0>         0.0000
     13 C13         8.8120    6.7992    3.0602 C.3       1 <0>         0.0000
     14 C14         1.8344    2.1310    3.5781 C.3       1 <0>         0.0000
     15 O1          0.5813    4.1817    4.0148 O.2       1 <0>         0.0000
     16 O2         -0.5396    2.2120    4.0146 O.3       1 <0>         0.0000
     17 O3          7.7834    7.0495    2.1036 O.3       1 <0>         0.0000
     18 H1          6.0703    3.3925    4.9946 H         1 <0>         0.0000
     19 H2          3.6549    5.8609    0.6776 H         1 <0>         0.0000
     20 H3          4.0247    2.0186    5.1527 H         1 <0>         0.0000
     21 H4          5.7005    7.2348    0.5195 H         1 <0>         0.0000
     22 H5          2.3648    4.0778    1.7868 H         1 <0>         0.0000
     23 H6          7.3602    5.1757    3.8856 H         1 <0>         0.0000
     24 H7          0.6451    0.6859    2.4742 H         1 <0>         0.0000
     25 H8          1.4526    1.9208    1.4499 H         1 <0>         0.0000
     26 H9          2.4120    0.5827    2.1679 H         1 <0>         0.0000
     27 H10         9.6583    7.4770    2.8751 H         1 <0>         0.0000
     28 H11         8.4198    6.9707    4.0735 H         1 <0>         0.0000
     29 H12         9.1508    5.7566    2.9698 H         1 <0>         0.0000
     30 H13         1.9718    1.4369    4.4203 H         1 <0>         0.0000
     31 H14        -1.2780    2.7767    4.2106 H         1 <0>         0.0000
@<TRIPOS>BOND
     1    1    3 ar
     2    1    8 ar
     3    2    4 ar
     4    2    7 ar
     5    3    9 ar
     6    4   10 ar
     7    5    7 ar
     8    5    9 ar
     9    6    8 ar
    10    6   10 ar
    11    7    8 ar
    12    9   14 1
    13   10   17 1
    14   11   14 1
    15   11   15 2
    16   11   16 1
    17   12   14 1
    18   13   17 1
    19    1   18 1
    20    2   19 1
    21    3   20 1
    22    4   21 1
    23    5   22 1
    24    6   23 1
    25   12   24 1
    26   12   25 1
    27   12   26 1
    28   13   27 1
    29   13   28 1
    30   13   29 1
    31   14   30 1
    32   16   31 1
@<TRIPOS>MOLECULE
naproxen_8
   31    32     0     0     0
SMALL
NO_CHARGES

@<TRIPOS>ATOM
      1 C1         -4.8959    0.4137   -0.5091 C.ar      1 <0>         0.0000
      2 C2         -3.6889    2.2024    2.5115 C.ar      1 <0>         0.0000
      3 C3         -4.0120    0.8889   -1.4783 C.ar      1 <0>         0.0000
      4 C4         -4.5728    1.7273    3.4807 C.ar      1 <0>         0.0000
      5 C5         -2.9066    2.2390    0.1900 C.ar      1 <0>         0.0000
      6 C6         -5.6783    0.3773    1.8124 C.ar      1 <0>         0.0000
      7 C7         -3.7876    1.7712    1.1786 C.ar      1 <0>         0.0000
      8 C8         -4.7972    0.8450    0.8238 C.ar      1 <0>         0.0000
      9 C9         -3.0192    1.7997   -1.1295 C.ar      1 <0>         0.0000
     10 C10        -5.5656    0.8164    3.1318 C.ar      1 <0>         0.0000
     11 C11        -0.6087    2.0398   -1.8089 C.2       1 <0>         0.0000
     12 C12        -2.3543    1.7571   -3.5808 C.3       1 <0>         0.0000
     13 C13        -6.2574    0.8438    5.4070 C.3       1 <0>         0.0000
     14 C14        -2.0751    2.3062   -2.1668 C.3       1 <0>         0.0000
     15 O1         -0.2197    1.0774   -1.1600 O.2       1 <0>         0.0000
     16 O2          0.2372    2.9943   -2.2792 O.3       1 <0>         0.0000
     17 O3         -6.4279    0.3537    4.0780 O.3       1 <0>         0.0000
     18 H1         -5.6639   -0.2930   -0.7866 H         1 <0>         0.0000
     19 H2         -2.9208    2.9091    2.7891 H         1 <0>         0.0000
     20 H3         -4.0982    0.5496   -2.5000 H         1 <0>         0.0000
     21 H4         -4.4866    2.0665    4.5024 H         1 <0>         0.0000
     22 H5         -2.1339    2.9459    0.4538 H         1 <0>         0.0000
     23 H6         -6.4510   -0.3296    1.5485 H         1 <0>         0.0000
     24 H7         -1.6214    2.1731   -4.2876 H         1 <0>         0.0000
     25 H8         -2.2722    0.6602   -3.5708 H         1 <0>         0.0000
     26 H9         -3.3689    2.0460   -3.8924 H         1 <0>         0.0000
     27 H10        -7.0145    0.3921    6.0648 H         1 <0>         0.0000
     28 H11        -5.2528    0.5798    5.7690 H         1 <0>         0.0000
     29 H12        -6.3732    1.9377    5.4120 H         1 <0>         0.0000
     30 H13        -2.1987    3.3980   -2.2193 H         1 <0>         0.0000
     31 H14         1.1274    2.7829   -2.0235 H         1 <0>         0.0000
@<TRIPOS>BOND
     1    1    3 ar
     2    1    8 ar
     3    2    4 ar
     4    2    7 ar
     5    3    9 ar
     6    4   10 ar
     7    5    7 ar
     8    5    9 ar
     9    6    8 ar
    10    6   10 ar
    11    7    8 ar
    12    9   14 1
    13   10   17 1
    14   11   14 1
    15   11   15 2
    16   11   16 1
    17   12   14 1
    18   13   17 1
    19    1   18 1
    20    2   19 1
    21    3   20 1
    22    4   21 1
    23    5   22 1
    24    6   23 1
    25   12   24 1
    26   12   25 1
    27   12   26 1
    28   13   27 1
    29   13   28 1
    30   13   29 1
    31   14   30 1
    32   16   31 1
@<TRIPOS>MOLECULE
naproxen_8
   31    32     0     0     0
SMALL
NO_CHARGES

@<TRIPOS>ATOM
      1 C1         -4.8891    0.4227   -0.4854 C.ar      1 <0>         0.0000
      2 C2         -3.6611    2.2124    2.5261 C.ar      1 <0>         0.0000
      3 C3         -4.0096    0.8946   -1.4602 C.ar      1 <0>         0.0000
      4 C4         -4.5406    1.7405    3.5008 C.ar      1 <0>         0.0000
      5 C5         -2.8918    2.2442    0.2001 C.ar      1 <0>         0.0000
      6 C6         -5.6585    0.3909    1.8405 C.ar      1 <0>         0.0000
      7 C7         -3.7683    1.7797    1.1943 C.ar      1 <0>         0.0000
      8 C8         -4.7819    0.8554    0.8464 C.ar      1 <0>         0.0000
      9 C9         -3.0129    1.8036   -1.1181 C.ar      1 <0>         0.0000
     10 C10        -5.5374    0.8315    3.1587 C.ar      1 <0>         0.0000
     11 C11        -0.6056    2.0373   -1.8114 C.2       1 <0>         0.0000
     12 C12        -2.3619    1.7563   -3.5730 C.3       1 <0>         0.0000
     13 C13        -7.3929   -0.5578    3.6905 C.3       1 <0>         0.0000
     14 C14        -2.0734    2.3066   -2.1614 C.3       1 <0>         0.0000
     15 O1         -0.2152    1.0748   -1.1634 O.2       1 <0>         0.0000
     16 O2          0.2398    2.9892   -2.2876 O.3       1 <0>         0.0000
     17 O3         -6.3954    0.3719    4.1103 O.3       1 <0>         0.0000
     18 H1         -5.6603   -0.2826   -0.7577 H         1 <0>         0.0000
     19 H2         -2.8898    2.9177    2.7985 H         1 <0>         0.0000
     20 H3         -4.1024    0.5543   -2.4809 H         1 <0>         0.0000
     21 H4         -4.4479    2.0808    4.5216 H         1 <0>         0.0000
     22 H5         -2.1160    2.9497    0.4587 H         1 <0>         0.0000
     23 H6         -6.4343   -0.3145    1.5819 H         1 <0>         0.0000
     24 H7         -1.6319    2.1698   -4.2845 H         1 <0>         0.0000
     25 H8         -2.2822    0.6593   -3.5622 H         1 <0>         0.0000
     26 H9         -3.3775    2.0472   -3.8793 H         1 <0>         0.0000
     27 H10        -8.0132   -0.8449    4.5524 H         1 <0>         0.0000
     28 H11        -8.0270   -0.0927    2.9213 H         1 <0>         0.0000
     29 H12        -6.9077   -1.4527    3.2738 H         1 <0>         0.0000
     30 H13        -2.1948    3.3986   -2.2146 H         1 <0>         0.0000
     31 H14         1.1309    2.7762   -2.0367 H         1 <0>         0.0000
@<TRIPOS>BOND
     1    1    3 ar
     2    1    8 ar
     3    2    4 ar
     4    2    7 ar
     5    3    9 ar
     6    4   10 ar
     7    5    7 ar
     8    5    9 ar
     9    6    8 ar
    10    6   10 ar
    11    7    8 ar
    12    9   14 1
    13   10   17 1
    14   11   14 1
    15   11   15 2
    16   11   16 1
    17   12   14 1
    18   13   17 1
    19    1   18 1
    20    2   19 1
    21    3   20 1
    22    4   21 1
    23    5   22 1
    24    6   23 1
    25   12   24 1
    26   12   25 1
    27   12   26 1
    28   13   27 1
    29   13   28 1
    30   13   29 1
    31   14   30 1
    32   16   31 1
@<TRIPOS>MOLECULE
naproxen_8
   31    32     0     0     0
SMALL
NO_CHARGES

@<TRIPOS>ATOM
      1 C1         -5.2451    1.8319   -0.3047 C.ar      1 <0>         0.0000
      2 C2         -2.8675    0.9156    2.3948 C.ar      1 <0>         0.0000
      3 C3         -4.3731    2.0607   -1.3695 C.ar      1 <0>         0.0000
      4 C4         -3.7396    0.6868    3.4596 C.ar      1 <0>         0.0000
      5 C5         -2.4956    1.5321    0.0530 C.ar      1 <0>         0.0000
      6 C6         -5.6170    1.2155    2.0371 C.ar      1 <0>         0.0000
      7 C7         -3.3587    1.2977    1.1358 C.ar      1 <0>         0.0000
      8 C8         -4.7540    1.4498    0.9543 C.ar      1 <0>         0.0000
      9 C9         -3.0010    1.9111   -1.1910 C.ar      1 <0>         0.0000
     10 C10        -5.1117    0.8364    3.2811 C.ar      1 <0>         0.0000
     11 C11        -0.5980    2.0139   -1.9292 C.2       1 <0>         0.0000
     12 C12        -2.3445    1.2627   -3.5577 C.3       1 <0>         0.0000
     13 C13        -7.3554    0.7851    4.0678 C.3       1 <0>         0.0000
     14 C14        -2.0705    2.1557   -2.3304 C.3       1 <0>         0.0000
     15 O1          0.0416    0.9729   -2.0050 O.2       1 <0>         0.0000
     16 O2         -0.0582    3.1711   -1.4629 O.3       1 <0>         0.0000
     17 O3         -5.9617    0.6135    4.3206 O.3       1 <0>         0.0000
     18 H1         -6.3087    1.9498   -0.4502 H         1 <0>         0.0000
     19 H2         -1.8039    0.7976    2.5403 H         1 <0>         0.0000
     20 H3         -4.7631    2.3541   -2.3329 H         1 <0>         0.0000
     21 H4         -3.3496    0.3934    4.4230 H         1 <0>         0.0000
     22 H5         -1.4298    1.4179    0.1846 H         1 <0>         0.0000
     23 H6         -6.6829    1.3298    1.9056 H         1 <0>         0.0000
     24 H7         -1.6222    1.4997   -4.3528 H         1 <0>         0.0000
     25 H8         -2.2415    0.2055   -3.2721 H         1 <0>         0.0000
     26 H9         -3.3656    1.4459   -3.9237 H         1 <0>         0.0000
     27 H10        -7.9236    0.5748    4.9859 H         1 <0>         0.0000
     28 H11        -7.5452    1.8204    3.7483 H         1 <0>         0.0000
     29 H12        -7.6719    0.0925    3.2741 H         1 <0>         0.0000
     30 H13        -2.2150    3.1966   -2.6556 H         1 <0>         0.0000
     31 H14         0.8494    3.0239   -1.2240 H         1 <0>         0.0000
@<TRIPOS>BOND
     1    1    3 ar
     2    1    8 ar
     3    2    4 ar
     4    2    7 ar
     5    3    9 ar
     6    4   10 ar
     7    5    7 ar
     8    5    9 ar
     9    6    8 ar
    10    6   10 ar
    11    7    8 ar
    12    9   14 1
    13   10   17 1
    14   11   14 1
    15   11   15 2
    16   11   16 1
    17   12   14 1
    18   13   17 1
    19    1   18 1
    20    2   19 1
    21    3   20 1
    22    4   21 1
    23    5   22 1
    24    6   23 1
    25   12   24 1
    26   12   25 1
    27   12   26 1
    28   13   27 1
    29   13   28 1
    30   13   29 1
    31   14   30 1
    32   16   31 1
@<TRIPOS>MOLECULE
naproxen_8
   31    32     0     0     0
SMALL
NO_CHARGES

@<TRIPOS>ATOM
      1 C1         -5.2620    1.8468   -0.3394 C.ar      1 <0>         0.0000
      2 C2         -2.9108    0.9342    2.3844 C.ar      1 <0>         0.0000
      3 C3         -4.3800    2.0694   -1.3972 C.ar      1 <0>         0.0000
      4 C4         -3.7928    0.7116    3.4423 C.ar      1 <0>         0.0000
      5 C5         -2.5166    1.5412    0.0437 C.ar      1 <0>         0.0000
      6 C6         -5.6562    1.2400    2.0013 C.ar      1 <0>         0.0000
      7 C7         -3.3898    1.3130    1.1197 C.ar      1 <0>         0.0000
      8 C8         -4.7830    1.4681    0.9253 C.ar      1 <0>         0.0000
      9 C9         -3.0100    1.9169   -1.2060 C.ar      1 <0>         0.0000
     10 C10        -5.1629    0.8642    3.2511 C.ar      1 <0>         0.0000
     11 C11        -0.6003    2.0107   -1.9233 C.2       1 <0>         0.0000
     12 C12        -2.3343    1.2581   -3.5645 C.3       1 <0>         0.0000
     13 C13        -5.4519    0.2662    5.5346 C.3       1 <0>         0.0000
     14 C14        -2.0688    2.1549   -2.3381 C.3       1 <0>         0.0000
     15 O1          0.0372    0.9677   -1.9897 O.2       1 <0>         0.0000
     16 O2         -0.0615    3.1682   -1.4565 O.3       1 <0>         0.0000
     17 O3         -6.0227    0.6473    4.2838 O.3       1 <0>         0.0000
     18 H1         -6.3240    1.9670   -0.4947 H         1 <0>         0.0000
     19 H2         -1.8488    0.8140    2.5397 H         1 <0>         0.0000
     20 H3         -4.7607    2.3603   -2.3651 H         1 <0>         0.0000
     21 H4         -3.4121    0.4207    4.4102 H         1 <0>         0.0000
     22 H5         -1.4523    1.4247    0.1851 H         1 <0>         0.0000
     23 H6         -6.7205    1.3566    1.8599 H         1 <0>         0.0000
     24 H7         -1.6043    1.4902   -4.3540 H         1 <0>         0.0000
     25 H8         -2.2366    0.2017   -3.2741 H         1 <0>         0.0000
     26 H9         -3.3516    1.4426   -3.9401 H         1 <0>         0.0000
     27 H10        -6.2525    0.1241    6.2755 H         1 <0>         0.0000
     28 H11        -4.8949   -0.6744    5.4119 H         1 <0>         0.0000
     29 H12        -4.7678    1.0549    5.8809 H         1 <0>         0.0000
     30 H13        -2.2076    3.1949   -2.6684 H         1 <0>         0.0000
     31 H14         0.8435    3.0195   -1.2090 H         1 <0>         0.0000
@<TRIPOS>BOND
     1    1    3 ar
     2    1    8 ar
     3    2    4 ar
     4    2    7 ar
     5    3    9 ar
     6    4   10 ar
     7    5    7 ar
     8    5    9 ar
     9    6    8 ar
    10    6   10 ar
    11    7    8 ar
    12    9   14 1
    13   10   17 1
    14   11   14 1
    15   11   15 2
    16   11   16 1
    17   12   14 1
    18   13   17 1
    19    1   18 1
    20    2   19 1
    21    3   20 1
    22    4   21 1
    23    5   22 1
    24    6   23 1
    25   12   24 1
    26   12   25 1
    27   12   26 1
    28   13   27 1
    29   13   28 1
    30   13   29 1
    31   14   30 1
    32   16   31 1
@<TRIPOS>MOLECULE
naproxen_8
   31    32     0     0     0
SMALL
NO_CHARGES

@<TRIPOS>ATOM
      1 C1         -3.2217    1.2116    1.1863 C.ar      1 <0>         0.0000
      2 C2         -6.5756    1.8858   -0.2548 C.ar      1 <0>         0.0000
      3 C3         -2.3972    1.4746    0.0920 C.ar      1 <0>         0.0000
      4 C4         -7.4000    1.6228    0.8395 C.ar      1 <0>         0.0000
      5 C5         -4.3365    2.0124   -1.2413 C.ar      1 <0>         0.0000
      6 C6         -5.4608    1.0848    2.1727 C.ar      1 <0>         0.0000
      7 C7         -5.1815    1.7519   -0.1503 C.ar      1 <0>         0.0000
      8 C8         -4.6158    1.3454    1.0817 C.ar      1 <0>         0.0000
      9 C9         -2.9535    1.8743   -1.1195 C.ar      1 <0>         0.0000
     10 C10        -6.8437    1.2230    2.0510 C.ar      1 <0>         0.0000
     11 C11        -0.5822    2.0217   -1.9470 C.2       1 <0>         0.0000
     12 C12        -2.3823    1.2872   -3.5240 C.3       1 <0>         0.0000
     13 C13        -7.0124    0.5607    4.3288 C.3       1 <0>         0.0000
     14 C14        -2.0706    2.1554   -2.2880 C.3       1 <0>         0.0000
     15 O1          0.0652    0.9901   -2.0713 O.2       1 <0>         0.0000
     16 O2         -0.0372    3.1742   -1.4754 O.3       1 <0>         0.0000
     17 O3         -7.6488    0.9661    3.1180 O.3       1 <0>         0.0000
     18 H1         -2.7834    0.9018    2.1234 H         1 <0>         0.0000
     19 H2         -7.0140    2.1957   -1.1920 H         1 <0>         0.0000
     20 H3         -1.3265    1.3680    0.1850 H         1 <0>         0.0000
     21 H4         -8.4707    1.7294    0.7465 H         1 <0>         0.0000
     22 H5         -4.7616    2.3229   -2.1843 H         1 <0>         0.0000
     23 H6         -5.0357    0.7742    3.1157 H         1 <0>         0.0000
     24 H7         -1.6939    1.5504   -4.3406 H         1 <0>         0.0000
     25 H8         -2.2569    0.2250   -3.2669 H         1 <0>         0.0000
     26 H9         -3.4187    1.4666   -3.8461 H         1 <0>         0.0000
     27 H10        -7.7737    0.3871    5.1036 H         1 <0>         0.0000
     28 H11        -6.4492   -0.3679    4.1538 H         1 <0>         0.0000
     29 H12        -6.3230    1.3502    4.6627 H         1 <0>         0.0000
     30 H13        -2.2387    3.2016   -2.5834 H         1 <0>         0.0000
     31 H14         0.8805    3.0323   -1.2750 H         1 <0>         0.0000
@<TRIPOS>BOND
     1    1    3 ar
     2    1    8 ar
     3    2    4 ar
     4    2    7 ar
     5    3    9 ar
     6    4   10 ar
     7    5    7 ar
     8    5    9 ar
     9    6    8 ar
    10    6   10 ar
    11    7    8 ar
    12    9   14 1
    13   10   17 1
    14   11   14 1
    15   11   15 2
    16   11   16 1
    17   12   14 1
    18   13   17 1
    19    1   18 1
    20    2   19 1
    21    3   20 1
    22    4   21 1
    23    5   22 1
    24    6   23 1
    25   12   24 1
    26   12   25 1
    27   12   26 1
    28   13   27 1
    29   13   28 1
    30   13   29 1
    31   14   30 1
    32   16   31 1
@<TRIPOS>MOLECULE
naproxen_8
   31    32     0     0     0
SMALL
NO_CHARGES

@<TRIPOS>ATOM
      1 C1         -4.6885    0.4700   -0.2008 C.ar      1 <0>         0.0000
      2 C2         -3.6736    3.0166    2.3022 C.ar      1 <0>         0.0000
      3 C3         -3.8677    0.8048   -1.2781 C.ar      1 <0>         0.0000
      4 C4         -4.4944    2.6817    3.3795 C.ar      1 <0>         0.0000
      5 C5         -2.9115    2.6090    0.0096 C.ar      1 <0>         0.0000
      6 C6         -5.4507    0.8776    2.0917 C.ar      1 <0>         0.0000
      7 C7         -3.7302    2.2860    1.1041 C.ar      1 <0>         0.0000
      8 C8         -4.6320    1.2005    0.9973 C.ar      1 <0>         0.0000
      9 C9         -2.9809    1.8722   -1.1731 C.ar      1 <0>         0.0000
     10 C10        -5.3812    1.6143    3.2745 C.ar      1 <0>         0.0000
     11 C11        -0.6155    2.2093   -1.9611 C.2       1 <0>         0.0000
     12 C12        -2.3273    1.3459   -3.5708 C.3       1 <0>         0.0000
     13 C13        -7.0672    0.1835    4.1499 C.3       1 <0>         0.0000
     14 C14        -2.1041    2.2284   -2.3257 C.3       1 <0>         0.0000
     15 O1         -0.1106    2.8953   -1.0818 O.2       1 <0>         0.0000
     16 O2          0.1101    1.3504   -2.7251 O.3       1 <0>         0.0000
     17 O3         -6.1820    1.2886    4.3259 O.3       1 <0>         0.0000
     18 H1         -5.3744   -0.3596   -0.2890 H         1 <0>         0.0000
     19 H2         -2.9877    3.8461    2.3905 H         1 <0>         0.0000
     20 H3         -3.9205    0.2352   -2.1942 H         1 <0>         0.0000
     21 H4         -4.4416    3.2513    4.2956 H         1 <0>         0.0000
     22 H5         -2.2212    3.4362    0.0843 H         1 <0>         0.0000
     23 H6         -6.1411    0.0505    2.0170 H         1 <0>         0.0000
     24 H7         -1.6486    1.6669   -4.3747 H         1 <0>         0.0000
     25 H8         -2.1234    0.2952   -3.3167 H         1 <0>         0.0000
     26 H9         -3.3692    1.4458   -3.9089 H         1 <0>         0.0000
     27 H10        -7.6513    0.0309    5.0694 H         1 <0>         0.0000
     28 H11        -7.7495    0.3902    3.3122 H         1 <0>         0.0000
     29 H12        -6.4831   -0.7228    3.9320 H         1 <0>         0.0000
     30 H13        -2.3488    3.2600   -2.6188 H         1 <0>         0.0000
     31 H14         1.0221    1.3844   -2.4615 H         1 <0>         0.0000
@<TRIPOS>BOND
     1    1    3 ar
     2    1    8 ar
     3    2    4 ar
     4    2    7 ar
     5    3    9 ar
     6    4   10 ar
     7    5    7 ar
     8    5    9 ar
     9    6    8 ar
    10    6   10 ar
    11    7    8 ar
    12    9   14 1
    13   10   17 1
    14   11   14 1
    15   11   15 2
    16   11   16 1
    17   12   14 1
    18   13   17 1
    19    1   18 1
    20    2   19 1
    21    3   20 1
    22    4   21 1
    23    5   22 1
    24    6   23 1
    25   12   24 1
    26   12   25 1
    27   12   26 1
    28   13   27 1
    29   13   28 1
    30   13   29 1
    31   14   30 1
    32   16   31 1
@<TRIPOS>MOLECULE
naproxen_8
   31    32     0     0     0
SMALL
NO_CHARGES

@<TRIPOS>ATOM
      1 C1         -4.7063    0.4475   -0.2384 C.ar      1 <0>         0.0000
      2 C2         -3.7071    2.9557    2.3092 C.ar      1 <0>         0.0000
      3 C3         -3.8765    0.7965   -1.3043 C.ar      1 <0>         0.0000
      4 C4         -4.5369    2.6066    3.3750 C.ar      1 <0>         0.0000
      5 C5         -2.9276    2.5801    0.0170 C.ar      1 <0>         0.0000
      6 C6         -5.4859    0.8231    2.0537 C.ar      1 <0>         0.0000
      7 C7         -3.7553    2.2427    1.1002 C.ar      1 <0>         0.0000
      8 C8         -4.6580    1.1605    0.9705 C.ar      1 <0>         0.0000
      9 C9         -2.9888    1.8607   -1.1768 C.ar      1 <0>         0.0000
     10 C10        -5.4246    1.5424    3.2475 C.ar      1 <0>         0.0000
     11 C11        -0.6166    2.2051   -1.9411 C.2       1 <0>         0.0000
     12 C12        -2.3171    1.3682   -3.5766 C.3       1 <0>         0.0000
     13 C13        -6.1210    1.9798    5.4790 C.3       1 <0>         0.0000
     14 C14        -2.1023    2.2321   -2.3171 C.3       1 <0>         0.0000
     15 O1         -0.1176    2.8774   -1.0480 O.2       1 <0>         0.0000
     16 O2          0.1135    1.3561   -2.7118 O.3       1 <0>         0.0000
     17 O3         -6.2342    1.2028    4.2877 O.3       1 <0>         0.0000
     18 H1         -5.3928   -0.3795   -0.3441 H         1 <0>         0.0000
     19 H2         -3.0206    3.7827    2.4149 H         1 <0>         0.0000
     20 H3         -3.9230    0.2404   -2.2289 H         1 <0>         0.0000
     21 H4         -4.4904    3.1627    4.2997 H         1 <0>         0.0000
     22 H5         -2.2364    3.4049    0.1091 H         1 <0>         0.0000
     23 H6         -6.1771   -0.0016    1.9615 H         1 <0>         0.0000
     24 H7         -1.6316    1.6996   -4.3705 H         1 <0>         0.0000
     25 H8         -2.1169    0.3136   -3.3362 H         1 <0>         0.0000
     26 H9         -3.3562    1.4748   -3.9215 H         1 <0>         0.0000
     27 H10        -6.8265    1.6007    6.2330 H         1 <0>         0.0000
     28 H11        -5.0947    1.9069    5.8680 H         1 <0>         0.0000
     29 H12        -6.3543    3.0310    5.2545 H         1 <0>         0.0000
     30 H13        -2.3430    3.2683   -2.5972 H         1 <0>         0.0000
     31 H14         1.0235    1.3847   -2.4405 H         1 <0>         0.0000
@<TRIPOS>BOND
     1    1    3 ar
     2    1    8 ar
     3    2    4 ar
     4    2    7 ar
     5    3    9 ar
     6    4   10 ar
     7    5    7 ar
     8    5    9 ar
     9    6    8 ar
    10    6   10 ar
    11    7    8 ar
    12    9   14 1
    13   10   17 1
    14   11   14 1
    15   11   15 2
    16   11   16 1
    17   12   14 1
    18   13   17 1
    19    1   18 1
    20    2   19 1
    21    3   20 1
    22    4   21 1
    23    5   22 1
    24    6   23 1
    25   12   24 1
    26   12   25 1
    27   12   26 1
    28   13   27 1
    29   13   28 1
    30   13   29 1
    31   14   30 1
    32   16   31 1
@<TRIPOS>MOLECULE
naproxen_8
   31    32     0     0     0
SMALL
NO_CHARGES

@<TRIPOS>ATOM
      1 C1         -3.7780    0.3163    0.5449 C.ar      1 <0>         0.0000
      2 C2         -5.4196    3.6023    1.0807 C.ar      1 <0>         0.0000
      3 C3         -2.9584    0.5964   -0.5489 C.ar      1 <0>         0.0000
      4 C4         -6.2392    3.3221    2.1744 C.ar      1 <0>         0.0000
      5 C5         -3.7641    2.8720   -0.5712 C.ar      1 <0>         0.0000
      6 C6         -5.4336    1.0465    2.1966 C.ar      1 <0>         0.0000
      7 C7         -4.5953    2.6078    0.5296 C.ar      1 <0>         0.0000
      8 C8         -4.6024    1.3108    1.0959 C.ar      1 <0>         0.0000
      9 C9         -2.9515    1.8718   -1.1058 C.ar      1 <0>         0.0000
     10 C10        -6.2461    2.0467    2.7313 C.ar      1 <0>         0.0000
     11 C11        -0.5848    2.0175   -1.9471 C.2       1 <0>         0.0000
     12 C12        -2.4015    1.3286   -3.5256 C.3       1 <0>         0.0000
     13 C13        -7.0041    0.4464    4.3190 C.3       1 <0>         0.0000
     14 C14        -2.0744    2.1695   -2.2747 C.3       1 <0>         0.0000
     15 O1          0.0536    0.9837   -2.0965 O.2       1 <0>         0.0000
     16 O2         -0.0276    3.1561   -1.4563 O.3       1 <0>         0.0000
     17 O3         -7.0464    1.7740    3.7981 O.3       1 <0>         0.0000
     18 H1         -3.7785   -0.6756    0.9721 H         1 <0>         0.0000
     19 H2         -5.4191    4.5942    0.6534 H         1 <0>         0.0000
     20 H3         -2.3289   -0.1770   -0.9637 H         1 <0>         0.0000
     21 H4         -6.8686    4.0955    2.5892 H         1 <0>         0.0000
     22 H5         -3.7538    3.8595   -1.0083 H         1 <0>         0.0000
     23 H6         -5.4439    0.0589    2.6336 H         1 <0>         0.0000
     24 H7         -1.7167    1.6028   -4.3417 H         1 <0>         0.0000
     25 H8         -2.2827    0.2606   -3.2907 H         1 <0>         0.0000
     26 H9         -3.4386    1.5225   -3.8367 H         1 <0>         0.0000
     27 H10        -7.6935    0.3645    5.1722 H         1 <0>         0.0000
     28 H11        -7.3047   -0.2645    3.5353 H         1 <0>         0.0000
     29 H12        -5.9811    0.2153    4.6508 H         1 <0>         0.0000
     30 H13        -2.2364    3.2226   -2.5479 H         1 <0>         0.0000
     31 H14         0.8904    3.0032   -1.2653 H         1 <0>         0.0000
@<TRIPOS>BOND
     1    1    3 ar
     2    1    8 ar
     3    2    4 ar
     4    2    7 ar
     5    3    9 ar
     6    4   10 ar
     7    5    7 ar
     8    5    9 ar
     9    6    8 ar
    10    6   10 ar
    11    7    8 ar
    12    9   14 1
    13   10   17 1
    14   11   14 1
    15   11   15 2
    16   11   16 1
    17   12   14 1
    18   13   17 1
    19    1   18 1
    20    2   19 1
    21    3   20 1
    22    4   21 1
    23    5   22 1
    24    6   23 1
    25   12   24 1
    26   12   25 1
    27   12   26 1
    28   13   27 1
    29   13   28 1
    30   13   29 1
    31   14   30 1
    32   16   31 1
@<TRIPOS>MOLECULE
naproxen_8
   31    32     0     0     0
SMALL
NO_CHARGES

@<TRIPOS>ATOM
      1 C1         -4.6327    2.8131    0.3851 C.ar      1 <0>         0.0000
      2 C2         -3.9458   -0.7395    1.2136 C.ar      1 <0>         0.0000
      3 C3         -3.7783    3.0098   -0.7002 C.ar      1 <0>         0.0000
      4 C4         -4.8002   -0.9361    2.2989 C.ar      1 <0>         0.0000
      5 C5         -3.0279    0.7220   -0.5254 C.ar      1 <0>         0.0000
      6 C6         -5.5506    1.3517    2.1241 C.ar      1 <0>         0.0000
      7 C7         -3.8820    0.5062    0.5683 C.ar      1 <0>         0.0000
      8 C8         -4.6964    1.5674    1.0304 C.ar      1 <0>         0.0000
      9 C9         -2.9774    1.9662   -1.1545 C.ar      1 <0>         0.0000
     10 C10        -5.6011    0.1075    2.7533 C.ar      1 <0>         0.0000
     11 C11        -0.5879    2.0136   -1.9405 C.2       1 <0>         0.0000
     12 C12        -2.3798    1.2747   -3.5247 C.3       1 <0>         0.0000
     13 C13        -7.2265    1.0270    4.2257 C.3       1 <0>         0.0000
     14 C14        -2.0651    2.1782   -2.3150 C.3       1 <0>         0.0000
     15 O1          0.0304    0.9597   -2.0147 O.2       1 <0>         0.0000
     16 O2         -0.0174    3.1662   -1.5002 O.3       1 <0>         0.0000
     17 O3         -6.4340   -0.0851    3.8125 O.3       1 <0>         0.0000
     18 H1         -5.2515    3.6273    0.7325 H         1 <0>         0.0000
     19 H2         -3.3270   -1.5537    0.8662 H         1 <0>         0.0000
     20 H3         -3.7384    3.9725   -1.1881 H         1 <0>         0.0000
     21 H4         -4.8401   -1.8988    2.7868 H         1 <0>         0.0000
     22 H5         -2.4036   -0.0835   -0.8831 H         1 <0>         0.0000
     23 H6         -6.1747    2.1572    2.4819 H         1 <0>         0.0000
     24 H7         -1.6689    1.4874   -4.3367 H         1 <0>         0.0000
     25 H8         -2.2911    0.2195   -3.2269 H         1 <0>         0.0000
     26 H9         -3.4042    1.4725   -3.8732 H         1 <0>         0.0000
     27 H10        -7.8487    0.7355    5.0847 H         1 <0>         0.0000
     28 H11        -6.5679    1.8589    4.5157 H         1 <0>         0.0000
     29 H12        -7.8740    1.3445    3.3950 H         1 <0>         0.0000
     30 H13        -2.1963    3.2173   -2.6512 H         1 <0>         0.0000
     31 H14         0.8918    3.0049   -1.2770 H         1 <0>         0.0000
@<TRIPOS>BOND
     1    1    3 ar
     2    1    8 ar
     3    2    4 ar
     4    2    7 ar
     5    3    9 ar
     6    4   10 ar
     7    5    7 ar
     8    5    9 ar
     9    6    8 ar
    10    6   10 ar
    11    7    8 ar
    12    9   14 1
    13   10   17 1
    14   11   14 1
    15   11   15 2
    16   11   16 1
    17   12   14 1
    18   13   17 1
    19    1   18 1
    20    2   19 1
    21    3   20 1
    22    4   21 1
    23    5   22 1
    24    6   23 1
    25   12   24 1
    26   12   25 1
    27   12   26 1
    28   13   27 1
    29   13   28 1
    30   13   29 1
    31   14   30 1
    32   16   31 1
@<TRIPOS>MOLECULE
naproxen_8
   31    32     0     0     0
SMALL
NO_CHARGES

@<TRIPOS>ATOM
      1 C1         -3.7028    1.7687    1.2351 C.ar      1 <0>         0.0000
      2 C2         -5.8926   -0.5032   -0.7202 C.ar      1 <0>         0.0000
      3 C3         -2.8447    2.2415    0.2419 C.ar      1 <0>         0.0000
      4 C4         -6.7506   -0.9759    0.2731 C.ar      1 <0>         0.0000
      5 C5         -4.0004    0.8982   -1.3975 C.ar      1 <0>         0.0000
      6 C6         -5.5948    0.3673    1.9125 C.ar      1 <0>         0.0000
      7 C7         -4.8732    0.4119   -0.4106 C.ar      1 <0>         0.0000
      8 C8         -4.7221    0.8536    0.9255 C.ar      1 <0>         0.0000
      9 C9         -2.9932    1.8071   -1.0719 C.ar      1 <0>         0.0000
     10 C10        -6.6021   -0.5415    1.5869 C.ar      1 <0>         0.0000
     11 C11        -0.6007    2.0421   -1.8140 C.2       1 <0>         0.0000
     12 C12        -2.3933    1.7698   -3.5401 C.3       1 <0>         0.0000
     13 C13        -7.2307   -0.5170    3.8804 C.3       1 <0>         0.0000
     14 C14        -2.0753    2.3139   -2.1324 C.3       1 <0>         0.0000
     15 O1         -0.1977    1.0766   -1.1784 O.2       1 <0>         0.0000
     16 O2          0.2354    2.9955   -2.3037 O.3       1 <0>         0.0000
     17 O3         -7.4394   -1.0037    2.5555 O.3       1 <0>         0.0000
     18 H1         -3.5819    2.1100    2.2526 H         1 <0>         0.0000
     19 H2         -6.0135   -0.8444   -1.7377 H         1 <0>         0.0000
     20 H3         -2.0646    2.9451    0.4927 H         1 <0>         0.0000
     21 H4         -7.5307   -1.6795    0.0223 H         1 <0>         0.0000
     22 H5         -4.1100    0.5653   -2.4190 H         1 <0>         0.0000
     23 H6         -5.4851    0.7002    2.9340 H         1 <0>         0.0000
     24 H7         -1.6780    2.1858   -4.2648 H         1 <0>         0.0000
     25 H8         -2.3143    0.6727   -3.5355 H         1 <0>         0.0000
     26 H9         -3.4149    2.0626   -3.8240 H         1 <0>         0.0000
     27 H10        -7.9708   -0.9679    4.5579 H         1 <0>         0.0000
     28 H11        -6.2174   -0.7849    4.2139 H         1 <0>         0.0000
     29 H12        -7.3429    0.5772    3.8909 H         1 <0>         0.0000
     30 H13        -2.1968    3.4062   -2.1784 H         1 <0>         0.0000
     31 H14         1.1314    2.7807   -2.0722 H         1 <0>         0.0000
@<TRIPOS>BOND
     1    1    3 ar
     2    1    8 ar
     3    2    4 ar
     4    2    7 ar
     5    3    9 ar
     6    4   10 ar
     7    5    7 ar
     8    5    9 ar
     9    6    8 ar
    10    6   10 ar
    11    7    8 ar
    12    9   14 1
    13   10   17 1
    14   11   14 1
    15   11   15 2
    16   11   16 1
    17   12   14 1
    18   13   17 1
    19    1   18 1
    20    2   19 1
    21    3   20 1
    22    4   21 1
    23    5   22 1
    24    6   23 1
    25   12   24 1
    26   12   25 1
    27   12   26 1
    28   13   27 1
    29   13   28 1
    30   13   29 1
    31   14   30 1
    32   16   31 1
@<TRIPOS>MOLECULE
naproxen_0
   31    32     0     0     0
SMALL
NO_CHARGES

@<TRIPOS>ATOM
      1 C1         -5.4178   -1.6269    0.2302 C.ar      1 <0>         0.0000
      2 C2         -3.5244   -1.8566   -2.9545 C.ar      1 <0>         0.0000
      3 C3         -4.3809   -1.4994    1.1549 C.ar      1 <0>         0.0000
      4 C4         -4.5614   -1.9842   -3.8791 C.ar      1 <0>         0.0000
      5 C5         -2.7676   -1.6077   -0.6376 C.ar      1 <0>         0.0000
      6 C6         -6.1747   -1.8760   -2.0867 C.ar      1 <0>         0.0000
      7 C7         -3.7986   -1.7369   -1.5824 C.ar      1 <0>         0.0000
      8 C8         -5.1436   -1.7467   -1.1420 C.ar      1 <0>         0.0000
      9 C9         -3.0583   -1.4898    0.7218 C.ar      1 <0>         0.0000
     10 C10        -5.8840   -1.9938   -3.4461 C.ar      1 <0>         0.0000
     11 C11        -1.0358   -2.5818    1.7449 C.2       1 <0>         0.0000
     12 C12        -1.0894   -0.0903    1.5078 C.3       1 <0>         0.0000
     13 C13        -6.5280   -2.2356   -5.7226 C.3       1 <0>         0.0000
     14 C14        -1.9514   -1.3530    1.7117 C.3       1 <0>         0.0000
     15 O1         -1.1713   -3.5640    1.0268 O.2       1 <0>         0.0000
     16 O2         -0.0447   -2.4840    2.6701 O.3       1 <0>         0.0000
     17 O3         -6.8950   -2.1188   -4.3488 O.3       1 <0>         0.0000
     18 H1         -6.4419   -1.6336    0.5731 H         1 <0>         0.0000
     19 H2         -2.5004   -1.8499   -3.2975 H         1 <0>         0.0000
     20 H3         -4.6048   -1.4080    2.2075 H         1 <0>         0.0000
     21 H4         -4.3376   -2.0755   -4.9317 H         1 <0>         0.0000
     22 H5         -1.7390   -1.5995   -0.9668 H         1 <0>         0.0000
     23 H6         -7.2033   -1.8842   -1.7574 H         1 <0>         0.0000
     24 H7         -0.2981   -0.0587    2.2712 H         1 <0>         0.0000
     25 H8         -0.6328   -0.1159    0.5073 H         1 <0>         0.0000
     26 H9         -1.7227    0.8045    1.5990 H         1 <0>         0.0000
     27 H10        -7.4348   -2.3293   -6.3382 H         1 <0>         0.0000
     28 H11        -5.9673   -1.3404   -6.0296 H         1 <0>         0.0000
     29 H12        -5.8985   -3.1273   -5.8592 H         1 <0>         0.0000
     30 H13        -2.4095   -1.2680    2.7081 H         1 <0>         0.0000
     31 H14         0.4853   -3.2722    2.6516 H         1 <0>         0.0000
@<TRIPOS>BOND
     1    1    3 ar
     2    1    8 ar
     3    2    4 ar
     4    2    7 ar
     5    3    9 ar
     6    4   10 ar
     7    5    7 ar
     8    5    9 ar
     9    6    8 ar
    10    6   10 ar
    11    7    8 ar
    12    9   14 1
    13   10   17 1
    14   11   14 1
    15   11   15 2
    16   11   16 1
    17   12   14 1
    18   13   17 1
    19    1   18 1
    20    2   19 1
    21    3   20 1
    22    4   21 1
    23    5   22 1
    24    6   23 1
    25   12   24 1
    26   12   25 1
    27   12   26 1
    28   13   27 1
    29   13   28 1
    30   13   29 1
    31   14   30 1
    32   16   31 1
@<TRIPOS>MOLECULE
naproxen_0
   31    32     0     0     0
SMALL
NO_CHARGES

@<TRIPOS>ATOM
      1 C1         -5.4070   -1.6321    0.1898 C.ar      1 <0>         0.0000
      2 C2         -3.4837   -1.8567   -2.9773 C.ar      1 <0>         0.0000
      3 C3         -4.3790   -1.5034    1.1242 C.ar      1 <0>         0.0000
      4 C4         -4.5118   -1.9853   -3.9116 C.ar      1 <0>         0.0000
      5 C5         -2.7488   -1.6080   -0.6533 C.ar      1 <0>         0.0000
      6 C6         -6.1419   -1.8809   -2.1341 C.ar      1 <0>         0.0000
      7 C7         -3.7709   -1.7383   -1.6077 C.ar      1 <0>         0.0000
      8 C8         -5.1198   -1.7505   -1.1798 C.ar      1 <0>         0.0000
      9 C9         -3.0524   -1.4914    0.7034 C.ar      1 <0>         0.0000
     10 C10        -5.8383   -1.9974   -3.4908 C.ar      1 <0>         0.0000
     11 C11        -1.0377   -2.5808    1.7446 C.2       1 <0>         0.0000
     12 C12        -1.0932   -0.0892    1.5085 C.3       1 <0>         0.0000
     13 C13        -8.1769   -2.1284   -3.9028 C.3       1 <0>         0.0000
     14 C14        -1.9549   -1.3534    1.7036 C.3       1 <0>         0.0000
     15 O1         -1.1649   -3.5627    1.0247 O.2       1 <0>         0.0000
     16 O2         -0.0555   -2.4819    2.6790 O.3       1 <0>         0.0000
     17 O3         -6.8407   -2.1235   -4.4030 O.3       1 <0>         0.0000
     18 H1         -6.4342   -1.6407    0.5232 H         1 <0>         0.0000
     19 H2         -2.4565   -1.8480   -3.3107 H         1 <0>         0.0000
     20 H3         -4.6127   -1.4131    2.1747 H         1 <0>         0.0000
     21 H4         -4.2780   -2.0756   -4.9621 H         1 <0>         0.0000
     22 H5         -1.7173   -1.5979   -0.9729 H         1 <0>         0.0000
     23 H6         -7.1735   -1.8911   -1.8145 H         1 <0>         0.0000
     24 H7         -0.3091   -0.0568    2.2793 H         1 <0>         0.0000
     25 H8         -0.6273   -0.1134    0.5124 H         1 <0>         0.0000
     26 H9         -1.7288    0.8045    1.5944 H         1 <0>         0.0000
     27 H10        -8.8821   -2.2357   -4.7402 H         1 <0>         0.0000
     28 H11        -8.3044   -2.9701   -3.2062 H         1 <0>         0.0000
     29 H12        -8.3745   -1.1832   -3.3760 H         1 <0>         0.0000
     30 H13        -2.4225   -1.2698    2.6958 H         1 <0>         0.0000
     31 H14         0.4760   -3.2692    2.6650 H         1 <0>         0.0000
@<TRIPOS>BOND
     1    1    3 ar
     2    1    8 ar
     3    2    4 ar
     4    2    7 ar
     5    3    9 ar
     6    4   10 ar
     7    5    7 ar
     8    5    9 ar
     9    6    8 ar
    10    6   10 ar
    11    7    8 ar
    12    9   14 1
    13   10   17 1
    14   11   14 1
    15   11   15 2
    16   11   16 1
    17   12   14 1
    18   13   17 1
    19    1   18 1
    20    2   19 1
    21    3   20 1
    22    4   21 1
    23    5   22 1
    24    6   23 1
    25   12   24 1
    26   12   25 1
    27   12   26 1
    28   13   27 1
    29   13   28 1
    30   13   29 1
    31   14   30 1
    32   16   31 1
@<TRIPOS>MOLECULE
naproxen_0
   31    32     0     0     0
SMALL
NO_CHARGES

@<TRIPOS>ATOM
      1 C1         -4.6137   -2.7836   -0.7594 C.ar      1 <0>         0.0000
      2 C2         -4.0221    0.5273   -2.3304 C.ar      1 <0>         0.0000
      3 C3         -3.7679   -2.7146    0.3479 C.ar      1 <0>         0.0000
      4 C4         -4.8680    0.4583   -3.4377 C.ar      1 <0>         0.0000
      5 C5         -3.0836   -0.4955   -0.3115 C.ar      1 <0>         0.0000
      6 C6         -5.5522   -1.7609   -2.7783 C.ar      1 <0>         0.0000
      7 C7         -3.9297   -0.5475   -1.4312 C.ar      1 <0>         0.0000
      8 C8         -4.7062   -1.7087   -1.6586 C.ar      1 <0>         0.0000
      9 C9         -3.0043   -1.5728    0.5715 C.ar      1 <0>         0.0000
     10 C10        -5.6315   -0.6836   -3.6613 C.ar      1 <0>         0.0000
     11 C11        -1.0808   -2.6442    1.7889 C.2       1 <0>         0.0000
     12 C12        -1.3540   -0.1577    1.8856 C.3       1 <0>         0.0000
     13 C13        -7.2099   -1.9499   -4.9107 C.3       1 <0>         0.0000
     14 C14        -2.1011   -1.5008    1.7559 C.3       1 <0>         0.0000
     15 O1         -1.3750   -3.8323    1.8098 O.2       1 <0>         0.0000
     16 O2          0.2072   -2.2099    1.8025 O.3       1 <0>         0.0000
     17 O3         -6.4562   -0.7503   -4.7422 O.3       1 <0>         0.0000
     18 H1         -5.2035   -3.6727   -0.9269 H         1 <0>         0.0000
     19 H2         -3.4324    1.4165   -2.1629 H         1 <0>         0.0000
     20 H3         -3.7056   -3.5479    1.0322 H         1 <0>         0.0000
     21 H4         -4.9303    1.2916   -4.1219 H         1 <0>         0.0000
     22 H5         -2.4883    0.3875   -0.1321 H         1 <0>         0.0000
     23 H6         -6.1474   -2.6440   -2.9578 H         1 <0>         0.0000
     24 H7         -0.7108   -0.1799    2.7777 H         1 <0>         0.0000
     25 H8         -0.7347    0.0051    0.9912 H         1 <0>         0.0000
     26 H9         -2.0837    0.6600    1.9801 H         1 <0>         0.0000
     27 H10        -7.8294   -1.8701   -5.8162 H         1 <0>         0.0000
     28 H11        -6.5231   -2.8033   -5.0105 H         1 <0>         0.0000
     29 H12        -7.8583   -2.1014   -4.0352 H         1 <0>         0.0000
     30 H13        -2.7274   -1.6045    2.6542 H         1 <0>         0.0000
     31 H14         0.7935   -2.9569    1.8296 H         1 <0>         0.0000
@<TRIPOS>BOND
     1    1    3 ar
     2    1    8 ar
     3    2    4 ar
     4    2    7 ar
     5    3    9 ar
     6    4   10 ar
     7    5    7 ar
     8    5    9 ar
     9    6    8 ar
    10    6   10 ar
    11    7    8 ar
    12    9   14 1
    13   10   17 1
    14   11   14 1
    15   11   15 2
    16   11   16 1
    17   12   14 1
    18   13   17 1
    19    1   18 1
    20    2   19 1
    21    3   20 1
    22    4   21 1
    23    5   22 1
    24    6   23 1
    25   12   24 1
    26   12   25 1
    27   12   26 1
    28   13   27 1
    29   13   28 1
    30   13   29 1
    31   14   30 1
    32   16   31 1
@<TRIPOS>MOLECULE
naproxen_0
   31    32     0     0     0
SMALL
NO_CHARGES

@<TRIPOS>ATOM
      1 C1         -5.3081   -1.8497   -0.1191 C.ar      1 <0>         0.0000
      2 C2         -3.1834   -1.2031   -3.0936 C.ar      1 <0>         0.0000
      3 C3         -4.3645   -1.7932    0.9070 C.ar      1 <0>         0.0000
      4 C4         -4.1270   -1.2597   -4.1197 C.ar      1 <0>         0.0000
      5 C5         -2.6300   -1.3451   -0.7111 C.ar      1 <0>         0.0000
      6 C6         -5.8615   -1.7079   -2.5016 C.ar      1 <0>         0.0000
      7 C7         -3.5662   -1.3984   -1.7565 C.ar      1 <0>         0.0000
      8 C8         -4.9253   -1.6545   -1.4561 C.ar      1 <0>         0.0000
      9 C9         -3.0280   -1.5414    0.6116 C.ar      1 <0>         0.0000
     10 C10        -5.4635   -1.5115   -3.8242 C.ar      1 <0>         0.0000
     11 C11        -0.9544   -2.5755    1.5917 C.2       1 <0>         0.0000
     12 C12        -1.3228   -0.1116    1.8367 C.3       1 <0>         0.0000
     13 C13        -5.9091   -1.3578   -6.1552 C.3       1 <0>         0.0000
     14 C14        -2.0210   -1.4810    1.7098 C.3       1 <0>         0.0000
     15 O1          0.1084   -2.4435    0.9985 O.2       1 <0>         0.0000
     16 O2         -1.3073   -3.7334    2.2102 O.3       1 <0>         0.0000
     17 O3         -6.3834   -1.5670   -4.8260 O.3       1 <0>         0.0000
     18 H1         -6.3435   -2.0456    0.1172 H         1 <0>         0.0000
     19 H2         -2.1480   -1.0072   -3.3299 H         1 <0>         0.0000
     20 H3         -4.6714   -1.9451    1.9313 H         1 <0>         0.0000
     21 H4         -3.8201   -1.1078   -5.1440 H         1 <0>         0.0000
     22 H5         -1.5912   -1.1501   -0.9333 H         1 <0>         0.0000
     23 H6         -6.9002   -1.9030   -2.2794 H         1 <0>         0.0000
     24 H7         -0.5980   -0.1441    2.6635 H         1 <0>         0.0000
     25 H8         -0.7982    0.1207    0.8982 H         1 <0>         0.0000
     26 H9         -2.0745    0.6657    2.0386 H         1 <0>         0.0000
     27 H10        -6.7501   -1.4291   -6.8607 H         1 <0>         0.0000
     28 H11        -5.4527   -0.3597   -6.2287 H         1 <0>         0.0000
     29 H12        -5.1585   -2.1233   -6.4013 H         1 <0>         0.0000
     30 H13        -2.5548   -1.6549    2.6558 H         1 <0>         0.0000
     31 H14        -0.6158   -4.3754    2.0997 H         1 <0>         0.0000
@<TRIPOS>BOND
     1    1    3 ar
     2    1    8 ar
     3    2    4 ar
     4    2    7 ar
     5    3    9 ar
     6    4   10 ar
     7    5    7 ar
     8    5    9 ar
     9    6    8 ar
    10    6   10 ar
    11    7    8 ar
    12    9   14 1
    13   10   17 1
    14   11   14 1
    15   11   15 2
    16   11   16 1
    17   12   14 1
    18   13   17 1
    19    1   18 1
    20    2   19 1
    21    3   20 1
    22    4   21 1
    23    5   22 1
    24    6   23 1
    25   12   24 1
    26   12   25 1
    27   12   26 1
    28   13   27 1
    29   13   28 1
    30   13   29 1
    31   14   30 1
    32   16   31 1
@<TRIPOS>MOLECULE
naproxen_0
   31    32     0     0     0
SMALL
NO_CHARGES

@<TRIPOS>ATOM
      1 C1         -5.2783   -1.8533   -0.1785 C.ar      1 <0>         0.0000
      2 C2         -3.0963   -1.1983   -3.1094 C.ar      1 <0>         0.0000
      3 C3         -4.3553   -1.7968    0.8662 C.ar      1 <0>         0.0000
      4 C4         -4.0194   -1.2549   -4.1540 C.ar      1 <0>         0.0000
      5 C5         -2.5899   -1.3430   -0.7166 C.ar      1 <0>         0.0000
      6 C6         -5.7847   -1.7087   -2.5712 C.ar      1 <0>         0.0000
      7 C7         -3.5051   -1.3963   -1.7804 C.ar      1 <0>         0.0000
      8 C8         -4.8694   -1.6553   -1.5074 C.ar      1 <0>         0.0000
      9 C9         -3.0137   -1.5421    0.5977 C.ar      1 <0>         0.0000
     10 C10        -5.3610   -1.5096   -3.8854 C.ar      1 <0>         0.0000
     11 C11        -0.9580   -2.5742    1.6170 C.2       1 <0>         0.0000
     12 C12        -1.3356   -0.1113    1.8585 C.3       1 <0>         0.0000
     13 C13        -7.6192   -1.8301   -4.5589 C.3       1 <0>         0.0000
     14 C14        -2.0286   -1.4817    1.7157 C.3       1 <0>         0.0000
     15 O1          0.1161   -2.4393    1.0452 O.2       1 <0>         0.0000
     16 O2         -1.3209   -3.7336    2.2266 O.3       1 <0>         0.0000
     17 O3         -6.2608   -1.5651   -4.9053 O.3       1 <0>         0.0000
     18 H1         -6.3179   -2.0514    0.0370 H         1 <0>         0.0000
     19 H2         -2.0568   -1.0002   -3.3249 H         1 <0>         0.0000
     20 H3         -4.6821   -1.9508    1.8840 H         1 <0>         0.0000
     21 H4         -3.6926   -1.1009   -5.1718 H         1 <0>         0.0000
     22 H5         -1.5473   -1.1459   -0.9179 H         1 <0>         0.0000
     23 H6         -6.8273   -1.9060   -2.3699 H         1 <0>         0.0000
     24 H7         -0.6272   -0.1438    2.6994 H         1 <0>         0.0000
     25 H8         -0.7929    0.1234    0.9309 H         1 <0>         0.0000
     26 H9         -2.0925    0.6644    2.0467 H         1 <0>         0.0000
     27 H10        -8.2341   -1.8474   -5.4708 H         1 <0>         0.0000
     28 H11        -7.6851   -2.8051   -4.0538 H         1 <0>         0.0000
     29 H12        -7.9859   -1.0423   -3.8844 H         1 <0>         0.0000
     30 H13        -2.5807   -1.6580    2.6506 H         1 <0>         0.0000
     31 H14        -0.6263   -4.3743    2.1288 H         1 <0>         0.0000
@<TRIPOS>BOND
     1    1    3 ar
     2    1    8 ar
     3    2    4 ar
     4    2    7 ar
     5    3    9 ar
     6    4   10 ar
     7    5    7 ar
     8    5    9 ar
     9    6    8 ar
    10    6   10 ar
    11    7    8 ar
    12    9   14 1
    13   10   17 1
    14   11   14 1
    15   11   15 2
    16   11   16 1
    17   12   14 1
    18   13   17 1
    19    1   18 1
    20    2   19 1
    21    3   20 1
    22    4   21 1
    23    5   22 1
    24    6   23 1
    25   12   24 1
    26   12   25 1
    27   12   26 1
    28   13   27 1
    29   13   28 1
    30   13   29 1
    31   14   30 1
    32   16   31 1
@<TRIPOS>MOLECULE
naproxen_0
   31    32     0     0     0
SMALL
NO_CHARGES

@<TRIPOS>ATOM
      1 C1         -3.8654   -0.3855   -1.3790 C.ar      1 <0>         0.0000
      2 C2         -5.3752   -3.7694   -1.1551 C.ar      1 <0>         0.0000
      3 C3         -3.0381   -0.3816   -0.2556 C.ar      1 <0>         0.0000
      4 C4         -6.2025   -3.7732   -2.2785 C.ar      1 <0>         0.0000
      5 C5         -3.7537   -2.6239    0.2807 C.ar      1 <0>         0.0000
      6 C6         -5.4869   -1.5309   -2.8147 C.ar      1 <0>         0.0000
      7 C7         -4.5919   -2.6454   -0.8459 C.ar      1 <0>         0.0000
      8 C8         -4.6486   -1.5095   -1.6881 C.ar      1 <0>         0.0000
      9 C9         -2.9823   -1.4986    0.5727 C.ar      1 <0>         0.0000
     10 C10        -6.2582   -2.6562   -3.1067 C.ar      1 <0>         0.0000
     11 C11        -1.0871   -2.6456    1.7654 C.2       1 <0>         0.0000
     12 C12        -1.3410   -0.1644    1.9793 C.3       1 <0>         0.0000
     13 C13        -7.0746   -1.4828   -5.0073 C.3       1 <0>         0.0000
     14 C14        -2.0971   -1.4927    1.7728 C.3       1 <0>         0.0000
     15 O1         -1.3915   -3.8306    1.7238 O.2       1 <0>         0.0000
     16 O2          0.2041   -2.2242    1.8198 O.3       1 <0>         0.0000
     17 O3         -7.0660   -2.6606   -4.2023 O.3       1 <0>         0.0000
     18 H1         -3.9038    0.4847   -2.0174 H         1 <0>         0.0000
     19 H2         -5.3367   -4.6396   -0.5166 H         1 <0>         0.0000
     20 H3         -2.4405    0.4889   -0.0285 H         1 <0>         0.0000
     21 H4         -6.8000   -4.6437   -2.5056 H         1 <0>         0.0000
     22 H5         -3.7056   -3.4873    0.9277 H         1 <0>         0.0000
     23 H6         -5.5350   -0.6674   -3.4616 H         1 <0>         0.0000
     24 H7         -0.7120   -0.2359    2.8789 H         1 <0>         0.0000
     25 H8         -0.7064    0.0362    1.1035 H         1 <0>         0.0000
     26 H9         -2.0652    0.6543    2.1026 H         1 <0>         0.0000
     27 H10        -7.7647   -1.6209   -5.8527 H         1 <0>         0.0000
     28 H11        -7.4049   -0.6266   -4.4007 H         1 <0>         0.0000
     29 H12        -6.0608   -1.2923   -5.3891 H         1 <0>         0.0000
     30 H13        -2.7383   -1.6344    2.6554 H         1 <0>         0.0000
     31 H14         0.7837   -2.9769    1.8193 H         1 <0>         0.0000
@<TRIPOS>BOND
     1    1    3 ar
     2    1    8 ar
     3    2    4 ar
     4    2    7 ar
     5    3    9 ar
     6    4   10 ar
     7    5    7 ar
     8    5    9 ar
     9    6    8 ar
    10    6   10 ar
    11    7    8 ar
    12    9   14 1
    13   10   17 1
    14   11   14 1
    15   11   15 2
    16   11   16 1
    17   12   14 1
    18   13   17 1
    19    1   18 1
    20    2   19 1
    21    3   20 1
    22    4   21 1
    23    5   22 1
    24    6   23 1
    25   12   24 1
    26   12   25 1
    27   12   26 1
    28   13   27 1
    29   13   28 1
    30   13   29 1
    31   14   30 1
    32   16   31 1
@<TRIPOS>MOLECULE
naproxen_0
   31    32     0     0     0
SMALL
NO_CHARGES

@<TRIPOS>ATOM
      1 C1         -4.6301   -2.7883   -0.7383 C.ar      1 <0>         0.0000
      2 C2         -4.0500    0.5196   -2.3199 C.ar      1 <0>         0.0000
      3 C3         -3.7772   -2.7167    0.3635 C.ar      1 <0>         0.0000
      4 C4         -4.9029    0.4479   -3.4216 C.ar      1 <0>         0.0000
      5 C5         -3.0980   -0.4987   -0.3050 C.ar      1 <0>         0.0000
      6 C6         -5.5820   -1.7701   -2.7532 C.ar      1 <0>         0.0000
      7 C7         -3.9513   -0.5534   -1.4191 C.ar      1 <0>         0.0000
      8 C8         -4.7288   -1.7153   -1.6390 C.ar      1 <0>         0.0000
      9 C9         -3.0126   -1.5741    0.5797 C.ar      1 <0>         0.0000
     10 C10        -5.6675   -0.6947   -3.6378 C.ar      1 <0>         0.0000
     11 C11        -1.0808   -2.6423    1.7868 C.2       1 <0>         0.0000
     12 C12        -1.3544   -0.1557    1.8802 C.3       1 <0>         0.0000
     13 C13        -6.5379    0.3702   -5.5779 C.3       1 <0>         0.0000
     14 C14        -2.1017   -1.4993    1.7581 C.3       1 <0>         0.0000
     15 O1         -1.3745   -3.8305    1.8122 O.2       1 <0>         0.0000
     16 O2          0.2070   -2.2074    1.7913 O.3       1 <0>         0.0000
     17 O3         -6.4990   -0.7639   -4.7133 O.3       1 <0>         0.0000
     18 H1         -5.2206   -3.6780   -0.9001 H         1 <0>         0.0000
     19 H2         -3.4595    1.4093   -2.1580 H         1 <0>         0.0000
     20 H3         -3.7102   -3.5486    1.0490 H         1 <0>         0.0000
     21 H4         -4.9700    1.2798   -4.1071 H         1 <0>         0.0000
     22 H5         -2.5019    0.3849   -0.1312 H         1 <0>         0.0000
     23 H6         -6.1781   -2.6538   -2.9270 H         1 <0>         0.0000
     24 H7         -0.7054   -0.1758    2.7681 H         1 <0>         0.0000
     25 H8         -0.7410    0.0055    0.9814 H         1 <0>         0.0000
     26 H9         -2.0838    0.6619    1.9777 H         1 <0>         0.0000
     27 H10        -7.2449    0.1817   -6.3993 H         1 <0>         0.0000
     28 H11        -6.8639    1.2536   -5.0093 H         1 <0>         0.0000
     29 H12        -5.5348    0.5502   -5.9918 H         1 <0>         0.0000
     30 H13        -2.7222   -1.6015    2.6607 H         1 <0>         0.0000
     31 H14         0.7938   -2.9542    1.8161 H         1 <0>         0.0000
@<TRIPOS>BOND
     1    1    3 ar
     2    1    8 ar
     3    2    4 ar
     4    2    7 ar
     5    3    9 ar
     6    4   10 ar
     7    5    7 ar
     8    5    9 ar
     9    6    8 ar
    10    6   10 ar
    11    7    8 ar
    12    9   14 1
    13   10   17 1
    14   11   14 1
    15   11   15 2
    16   11   16 1
    17   12   14 1
    18   13   17 1
    19    1   18 1
    20    2   19 1
    21    3   20 1
    22    4   21 1
    23    5   22 1
    24    6   23 1
    25   12   24 1
    26   12   25 1
    27   12   26 1
    28   13   27 1
    29   13   28 1
    30   13   29 1
    31   14   30 1
    32   16   31 1
@<TRIPOS>MOLECULE
naproxen_0
   31    32     0     0     0
SMALL
NO_CHARGES

@<TRIPOS>ATOM
      1 C1         -3.6332   -1.7286   -1.6997 C.ar      1 <0>         0.0000
      2 C2         -6.7215   -1.5836    0.3549 C.ar      1 <0>         0.0000
      3 C3         -2.6482   -1.5992   -0.7202 C.ar      1 <0>         0.0000
      4 C4         -7.7065   -1.7130   -0.6246 C.ar      1 <0>         0.0000
      5 C5         -4.3559   -1.4584    0.9802 C.ar      1 <0>         0.0000
      6 C6         -5.9988   -1.8538   -2.3251 C.ar      1 <0>         0.0000
      7 C7         -5.3607   -1.5875    0.0076 C.ar      1 <0>         0.0000
      8 C8         -4.9940   -1.7247   -1.3524 C.ar      1 <0>         0.0000
      9 C9         -3.0088   -1.4644    0.6171 C.ar      1 <0>         0.0000
     10 C10        -7.3459   -1.8478   -1.9620 C.ar      1 <0>         0.0000
     11 C11        -1.0532   -2.5628    1.7569 C.2       1 <0>         0.0000
     12 C12        -1.0714   -0.0736    1.4919 C.3       1 <0>         0.0000
     13 C13        -7.8676   -2.1079   -4.2677 C.3       1 <0>         0.0000
     14 C14        -1.9544   -1.3265    1.6627 C.3       1 <0>         0.0000
     15 O1         -1.1596   -3.5514    1.0426 O.2       1 <0>         0.0000
     16 O2         -0.1115   -2.4637    2.7321 O.3       1 <0>         0.0000
     17 O3         -8.3076   -1.9735   -2.9171 O.3       1 <0>         0.0000
     18 H1         -3.3464   -1.8329   -2.7357 H         1 <0>         0.0000
     19 H2         -7.0084   -1.4794    1.3909 H         1 <0>         0.0000
     20 H3         -1.6051   -1.6037   -1.0000 H         1 <0>         0.0000
     21 H4         -8.7496   -1.7085   -0.3448 H         1 <0>         0.0000
     22 H5         -4.6288   -1.3533    2.0199 H         1 <0>         0.0000
     23 H6         -5.7259   -1.9587   -3.3647 H         1 <0>         0.0000
     24 H7         -0.3212   -0.0407    2.2957 H         1 <0>         0.0000
     25 H8         -0.5628   -0.1137    0.5173 H         1 <0>         0.0000
     26 H9         -1.7004    0.8275    1.5404 H         1 <0>         0.0000
     27 H10        -8.7405   -2.2001   -4.9307 H         1 <0>         0.0000
     28 H11        -7.2829   -1.2208   -4.5527 H         1 <0>         0.0000
     29 H12        -7.2399   -3.0063   -4.3610 H         1 <0>         0.0000
     30 H13        -2.4638   -1.2270    2.6326 H         1 <0>         0.0000
     31 H14         0.4115   -3.2566    2.7497 H         1 <0>         0.0000
@<TRIPOS>BOND
     1    1    3 ar
     2    1    8 ar
     3    2    4 ar
     4    2    7 ar
     5    3    9 ar
     6    4   10 ar
     7    5    7 ar
     8    5    9 ar
     9    6    8 ar
    10    6   10 ar
    11    7    8 ar
    12    9   14 1
    13   10   17 1
    14   11   14 1
    15   11   15 2
    16   11   16 1
    17   12   14 1
    18   13   17 1
    19    1   18 1
    20    2   19 1
    21    3   20 1
    22    4   21 1
    23    5   22 1
    24    6   23 1
    25   12   24 1
    26   12   25 1
    27   12   26 1
    28   13   27 1
    29   13   28 1
    30   13   29 1
    31   14   30 1
    32   16   31 1
@<TRIPOS>MOLECULE
naproxen_0
   31    32     0     0     0
SMALL
NO_CHARGES

@<TRIPOS>ATOM
      1 C1         -5.0117   -0.6264   -0.4565 C.ar      1 <0>         0.0000
      2 C2         -3.5679   -3.2280   -2.6762 C.ar      1 <0>         0.0000
      3 C3         -4.1023   -0.6358    0.6015 C.ar      1 <0>         0.0000
      4 C4         -4.4773   -3.2185   -3.7342 C.ar      1 <0>         0.0000
      5 C5         -2.8311   -2.3641   -0.5051 C.ar      1 <0>         0.0000
      6 C6         -5.7486   -1.4903   -2.6275 C.ar      1 <0>         0.0000
      7 C7         -3.7365   -2.3681   -1.5787 C.ar      1 <0>         0.0000
      8 C8         -4.8431   -1.4863   -1.5540 C.ar      1 <0>         0.0000
      9 C9         -3.0141   -1.5030    0.5772 C.ar      1 <0>         0.0000
     10 C10        -5.5656   -2.3513   -3.7099 C.ar      1 <0>         0.0000
     11 C11        -0.9545   -2.5778    1.5430 C.2       1 <0>         0.0000
     12 C12        -1.3727   -0.1453    1.9612 C.3       1 <0>         0.0000
     13 C13        -7.5448   -1.4295   -4.6526 C.3       1 <0>         0.0000
     14 C14        -2.0429   -1.5113    1.7089 C.3       1 <0>         0.0000
     15 O1          0.1238   -2.3854    0.9962 O.2       1 <0>         0.0000
     16 O2         -1.3065   -3.7844    2.0606 O.3       1 <0>         0.0000
     17 O3         -6.4527   -2.3431   -4.7423 O.3       1 <0>         0.0000
     18 H1         -5.8540    0.0491   -0.4313 H         1 <0>         0.0000
     19 H2         -2.7255   -3.9034   -2.7015 H         1 <0>         0.0000
     20 H3         -4.2429    0.0303    1.4399 H         1 <0>         0.0000
     21 H4         -4.3367   -3.8846   -4.5726 H         1 <0>         0.0000
     22 H5         -1.9844   -3.0345   -0.5175 H         1 <0>         0.0000
     23 H6         -6.5953   -0.8199   -2.6151 H         1 <0>         0.0000
     24 H7         -0.6735   -0.2299    2.8062 H         1 <0>         0.0000
     25 H8         -0.8231    0.1653    1.0604 H         1 <0>         0.0000
     26 H9         -2.1435    0.6032    2.1968 H         1 <0>         0.0000
     27 H10        -8.1791   -1.5266   -5.5460 H         1 <0>         0.0000
     28 H11        -8.1389   -1.6555   -3.7549 H         1 <0>         0.0000
     29 H12        -7.1584   -0.4016   -4.5874 H         1 <0>         0.0000
     30 H13        -2.6028   -1.7644    2.6212 H         1 <0>         0.0000
     31 H14        -0.6009   -4.4059    1.9245 H         1 <0>         0.0000
@<TRIPOS>BOND
     1    1    3 ar
     2    1    8 ar
     3    2    4 ar
     4    2    7 ar
     5    3    9 ar
     6    4   10 ar
     7    5    7 ar
     8    5    9 ar
     9    6    8 ar
    10    6   10 ar
    11    7    8 ar
    12    9   14 1
    13   10   17 1
    14   11   14 1
    15   11   15 2
    16   11   16 1
    17   12   14 1
    18   13   17 1
    19    1   18 1
    20    2   19 1
    21    3   20 1
    22    4   21 1
    23    5   22 1
    24    6   23 1
    25   12   24 1
    26   12   25 1
    27   12   26 1
    28   13   27 1
    29   13   28 1
    30   13   29 1
    31   14   30 1
    32   16   31 1
@<TRIPOS>MOLECULE
naproxen_0
   31    32     0     0     0
SMALL
NO_CHARGES

@<TRIPOS>ATOM
      1 C1         -5.0310   -0.6023   -0.4131 C.ar      1 <0>         0.0000
      2 C2         -3.6234   -3.1932   -2.6683 C.ar      1 <0>         0.0000
      3 C3         -4.1086   -0.6220    0.6335 C.ar      1 <0>         0.0000
      4 C4         -4.5458   -3.1734   -3.7148 C.ar      1 <0>         0.0000
      5 C5         -2.8570   -2.3468   -0.5006 C.ar      1 <0>         0.0000
      6 C6         -5.7975   -1.4488   -2.5807 C.ar      1 <0>         0.0000
      7 C7         -3.7756   -2.3404   -1.5629 C.ar      1 <0>         0.0000
      8 C8         -4.8789   -1.4551   -1.5185 C.ar      1 <0>         0.0000
      9 C9         -3.0237   -1.4926    0.5898 C.ar      1 <0>         0.0000
     10 C10        -5.6308   -2.3029   -3.6711 C.ar      1 <0>         0.0000
     11 C11        -0.9560   -2.5808    1.5226 C.2       1 <0>         0.0000
     12 C12        -1.3608   -0.1499    1.9627 C.3       1 <0>         0.0000
     13 C13        -6.3009   -3.1838   -5.7761 C.3       1 <0>         0.0000
     14 C14        -2.0386   -1.5120    1.7093 C.3       1 <0>         0.0000
     15 O1          0.1161   -2.3882    0.9639 O.2       1 <0>         0.0000
     16 O2         -1.3056   -3.7898    2.0363 O.3       1 <0>         0.0000
     17 O3         -6.5305   -2.2846   -4.6924 O.3       1 <0>         0.0000
     18 H1         -5.8706    0.0758   -0.3728 H         1 <0>         0.0000
     19 H2         -2.7838   -3.8713   -2.7087 H         1 <0>         0.0000
     20 H3         -4.2366    0.0387    1.4781 H         1 <0>         0.0000
     21 H4         -4.4178   -3.8342   -4.5595 H         1 <0>         0.0000
     22 H5         -2.0128   -3.0199   -0.5280 H         1 <0>         0.0000
     23 H6         -6.6417   -0.7757   -2.5532 H         1 <0>         0.0000
     24 H7         -0.6515   -0.2426    2.7984 H         1 <0>         0.0000
     25 H8         -0.8213    0.1651    1.0573 H         1 <0>         0.0000
     26 H9         -2.1261    0.5995    2.2130 H         1 <0>         0.0000
     27 H10        -7.0968   -3.0657   -6.5262 H         1 <0>         0.0000
     28 H11        -5.3271   -2.9615   -6.2368 H         1 <0>         0.0000
     29 H12        -6.3015   -4.2178   -5.4008 H         1 <0>         0.0000
     30 H13        -2.5881   -1.7695    2.6267 H         1 <0>         0.0000
     31 H14        -0.6039   -4.4127    1.8871 H         1 <0>         0.0000
@<TRIPOS>BOND
     1    1    3 ar
     2    1    8 ar
     3    2    4 ar
     4    2    7 ar
     5    3    9 ar
     6    4   10 ar
     7    5    7 ar
     8    5    9 ar
     9    6    8 ar
    10    6   10 ar
    11    7    8 ar
    12    9   14 1
    13   10   17 1
    14   11   14 1
    15   11   15 2
    16   11   16 1
    17   12   14 1
    18   13   17 1
    19    1   18 1
    20    2   19 1
    21    3   20 1
    22    4   21 1
    23    5   22 1
    24    6   23 1
    25   12   24 1
    26   12   25 1
    27   12   26 1
    28   13   27 1
    29   13   28 1
    30   13   29 1
    31   14   30 1
    32   16   31 1
@<TRIPOS>MOLECULE
naproxen_12
   31    32     0     0     0
SMALL
NO_CHARGES

@<TRIPOS>ATOM
      1 C1         -2.8051    4.2183   -4.9572 C.ar      1 <0>         0.0000
      2 C2          0.4203    5.9892   -4.4671 C.ar      1 <0>         0.0000
      3 C3         -2.4275    2.8954   -4.7250 C.ar      1 <0>         0.0000
      4 C4          0.0426    7.3120   -4.6994 C.ar      1 <0>         0.0000
      5 C5         -0.1585    3.6130   -4.3199 C.ar      1 <0>         0.0000
      6 C6         -2.2264    6.5944   -5.1046 C.ar      1 <0>         0.0000
      7 C7         -0.5208    4.9502   -4.5505 C.ar      1 <0>         0.0000
      8 C8         -1.8640    5.2573   -4.8739 C.ar      1 <0>         0.0000
      9 C9         -1.1067    2.5934   -4.4069 C.ar      1 <0>         0.0000
     10 C10        -1.2782    7.6141   -5.0175 C.ar      1 <0>         0.0000
     11 C11        -1.8905    0.2095   -4.2264 C.2       1 <0>         0.0000
     12 C12         0.4088    0.6760   -5.0995 C.3       1 <0>         0.0000
     13 C13        -0.6267    9.8980   -5.1397 C.3       1 <0>         0.0000
     14 C14        -0.7051    1.1788   -4.1587 C.3       1 <0>         0.0000
     15 O1         -2.2500   -0.3725   -5.2417 O.2       1 <0>         0.0000
     16 O2         -2.5255    0.0589   -3.0340 O.3       1 <0>         0.0000
     17 O3         -1.6457    8.9049   -5.2444 O.3       1 <0>         0.0000
     18 H1         -3.8318    4.4456   -5.2036 H         1 <0>         0.0000
     19 H2          1.4470    5.7619   -4.2207 H         1 <0>         0.0000
     20 H3         -3.1607    2.1052   -4.7921 H         1 <0>         0.0000
     21 H4          0.7758    8.1022   -4.6323 H         1 <0>         0.0000
     22 H5          0.8648    3.3716   -4.0727 H         1 <0>         0.0000
     23 H6         -3.2496    6.8358   -5.3519 H         1 <0>         0.0000
     24 H7          0.6500   -0.3695   -4.8571 H         1 <0>         0.0000
     25 H8          0.0646    0.7404   -6.1423 H         1 <0>         0.0000
     26 H9          1.3064    1.2987   -4.9705 H         1 <0>         0.0000
     27 H10        -1.0572   10.8890   -5.3457 H         1 <0>         0.0000
     28 H11        -0.2056    9.8854   -4.1235 H         1 <0>         0.0000
     29 H12         0.1689    9.6852   -5.8689 H         1 <0>         0.0000
     30 H13        -0.3055    1.1249   -3.1352 H         1 <0>         0.0000
     31 H14        -3.2523   -0.5444   -3.1357 H         1 <0>         0.0000
@<TRIPOS>BOND
     1    1    3 ar
     2    1    8 ar
     3    2    4 ar
     4    2    7 ar
     5    3    9 ar
     6    4   10 ar
     7    5    7 ar
     8    5    9 ar
     9    6    8 ar
    10    6   10 ar
    11    7    8 ar
    12    9   14 1
    13   10   17 1
    14   11   14 1
    15   11   15 2
    16   11   16 1
    17   12   14 1
    18   13   17 1
    19    1   18 1
    20    2   19 1
    21    3   20 1
    22    4   21 1
    23    5   22 1
    24    6   23 1
    25   12   24 1
    26   12   25 1
    27   12   26 1
    28   13   27 1
    29   13   28 1
    30   13   29 1
    31   14   30 1
    32   16   31 1
@<TRIPOS>MOLECULE
naproxen_12
   31    32     0     0     0
SMALL
NO_CHARGES

@<TRIPOS>ATOM
      1 C1         -2.7775    4.2330   -4.9489 C.ar      1 <0>         0.0000
      2 C2          0.4624    5.9762   -4.4541 C.ar      1 <0>         0.0000
      3 C3         -2.4106    2.9064   -4.7208 C.ar      1 <0>         0.0000
      4 C4          0.0954    7.3027   -4.6823 C.ar      1 <0>         0.0000
      5 C5         -0.1357    3.6044   -4.3140 C.ar      1 <0>         0.0000
      6 C6         -2.1794    6.6048   -5.0892 C.ar      1 <0>         0.0000
      7 C7         -0.4872    4.9451   -4.5404 C.ar      1 <0>         0.0000
      8 C8         -1.8279    5.2641   -4.8627 C.ar      1 <0>         0.0000
      9 C9         -1.0922    2.5927   -4.4039 C.ar      1 <0>         0.0000
     10 C10        -1.2229    7.6164   -4.9992 C.ar      1 <0>         0.0000
     11 C11        -1.8954    0.2147   -4.2305 C.2       1 <0>         0.0000
     12 C12         0.4075    0.6652   -5.1026 C.3       1 <0>         0.0000
     13 C13        -2.9475    9.1612   -5.5424 C.3       1 <0>         0.0000
     14 C14        -0.7021    1.1742   -4.1600 C.3       1 <0>         0.0000
     15 O1         -2.2597   -0.3613   -5.2474 O.2       1 <0>         0.0000
     16 O2         -2.5314    0.0657   -3.0384 O.3       1 <0>         0.0000
     17 O3         -1.5799    8.9109   -5.2222 O.3       1 <0>         0.0000
     18 H1         -3.8023    4.4694   -5.1944 H         1 <0>         0.0000
     19 H2          1.4872    5.7398   -4.2086 H         1 <0>         0.0000
     20 H3         -3.1501    2.1225   -4.7901 H         1 <0>         0.0000
     21 H4          0.8350    8.0867   -4.6130 H         1 <0>         0.0000
     22 H5          0.8856    3.3539   -4.0677 H         1 <0>         0.0000
     23 H6         -3.2007    6.8552   -5.3356 H         1 <0>         0.0000
     24 H7          0.6403   -0.3830   -4.8634 H         1 <0>         0.0000
     25 H8          0.0637    0.7356   -6.1451 H         1 <0>         0.0000
     26 H9          1.3101    1.2801   -4.9719 H         1 <0>         0.0000
     27 H10        -3.0970   10.2401   -5.6966 H         1 <0>         0.0000
     28 H11        -3.2139    8.6192   -6.4618 H         1 <0>         0.0000
     29 H12        -3.5865    8.8171   -4.7158 H         1 <0>         0.0000
     30 H13        -0.3028    1.1140   -3.1368 H         1 <0>         0.0000
     31 H14        -3.2630   -0.5314   -3.1417 H         1 <0>         0.0000
@<TRIPOS>BOND
     1    1    3 ar
     2    1    8 ar
     3    2    4 ar
     4    2    7 ar
     5    3    9 ar
     6    4   10 ar
     7    5    7 ar
     8    5    9 ar
     9    6    8 ar
    10    6   10 ar
    11    7    8 ar
    12    9   14 1
    13   10   17 1
    14   11   14 1
    15   11   15 2
    16   11   16 1
    17   12   14 1
    18   13   17 1
    19    1   18 1
    20    2   19 1
    21    3   20 1
    22    4   21 1
    23    5   22 1
    24    6   23 1
    25   12   24 1
    26   12   25 1
    27   12   26 1
    28   13   27 1
    29   13   28 1
    30   13   29 1
    31   14   30 1
    32   16   31 1
@<TRIPOS>MOLECULE
naproxen_12
   31    32     0     0     0
SMALL
NO_CHARGES

@<TRIPOS>ATOM
      1 C1         -2.1191    4.5699   -3.4394 C.ar      1 <0>         0.0000
      2 C2         -0.3711    5.4770   -6.5861 C.ar      1 <0>         0.0000
      3 C3         -1.7982    3.2166   -3.3300 C.ar      1 <0>         0.0000
      4 C4         -0.6921    6.8303   -6.6955 C.ar      1 <0>         0.0000
      5 C5         -0.5285    3.3509   -5.3787 C.ar      1 <0>         0.0000
      6 C6         -1.9619    6.6960   -4.6468 C.ar      1 <0>         0.0000
      7 C7         -0.8415    4.7141   -5.5048 C.ar      1 <0>         0.0000
      8 C8         -1.6488    5.3328   -4.5207 C.ar      1 <0>         0.0000
      9 C9         -1.0044    2.6083   -4.2978 C.ar      1 <0>         0.0000
     10 C10        -1.4859    7.4387   -5.7277 C.ar      1 <0>         0.0000
     11 C11        -1.9043    0.2672   -4.0990 C.2       1 <0>         0.0000
     12 C12         0.2555    0.6466   -5.3065 C.3       1 <0>         0.0000
     13 C13        -2.6164    9.3183   -4.8085 C.3       1 <0>         0.0000
     14 C14        -0.6621    1.1616   -4.1789 C.3       1 <0>         0.0000
     15 O1         -2.7679    0.3595   -3.2362 O.2       1 <0>         0.0000
     16 O2         -1.9563   -0.6634   -5.0885 O.3       1 <0>         0.0000
     17 O3         -1.7990    8.7590   -5.8354 O.3       1 <0>         0.0000
     18 H1         -2.7355    5.0357   -2.6848 H         1 <0>         0.0000
     19 H2          0.2454    5.0112   -7.3407 H         1 <0>         0.0000
     20 H3         -2.1661    2.6407   -2.4937 H         1 <0>         0.0000
     21 H4         -0.3242    7.4062   -7.5318 H         1 <0>         0.0000
     22 H5          0.0870    2.8725   -6.1262 H         1 <0>         0.0000
     23 H6         -2.5775    7.1743   -3.8994 H         1 <0>         0.0000
     24 H7          0.4629   -0.4225   -5.1517 H         1 <0>         0.0000
     25 H8         -0.2427    0.7865   -6.2772 H         1 <0>         0.0000
     26 H9          1.2009    1.2088   -5.2952 H         1 <0>         0.0000
     27 H10        -2.7910   10.3840   -5.0178 H         1 <0>         0.0000
     28 H11        -3.5797    8.7882   -4.7774 H         1 <0>         0.0000
     29 H12        -2.1088    9.2136   -3.8382 H         1 <0>         0.0000
     30 H13        -0.1117    1.0301   -3.2357 H         1 <0>         0.0000
     31 H14        -2.7394   -1.1914   -4.9864 H         1 <0>         0.0000
@<TRIPOS>BOND
     1    1    3 ar
     2    1    8 ar
     3    2    4 ar
     4    2    7 ar
     5    3    9 ar
     6    4   10 ar
     7    5    7 ar
     8    5    9 ar
     9    6    8 ar
    10    6   10 ar
    11    7    8 ar
    12    9   14 1
    13   10   17 1
    14   11   14 1
    15   11   15 2
    16   11   16 1
    17   12   14 1
    18   13   17 1
    19    1   18 1
    20    2   19 1
    21    3   20 1
    22    4   21 1
    23    5   22 1
    24    6   23 1
    25   12   24 1
    26   12   25 1
    27   12   26 1
    28   13   27 1
    29   13   28 1
    30   13   29 1
    31   14   30 1
    32   16   31 1
@<TRIPOS>MOLECULE
naproxen_12
   31    32     0     0     0
SMALL
NO_CHARGES

@<TRIPOS>ATOM
      1 C1         -1.9327    4.2377   -6.0189 C.ar      1 <0>         0.0000
      2 C2         -1.0451    5.9189   -2.8305 C.ar      1 <0>         0.0000
      3 C3         -1.5859    2.9164   -5.7358 C.ar      1 <0>         0.0000
      4 C4         -1.3919    7.2402   -3.1137 C.ar      1 <0>         0.0000
      5 C5         -0.8776    3.5750   -3.5240 C.ar      1 <0>         0.0000
      6 C6         -2.1001    6.5816   -5.3255 C.ar      1 <0>         0.0000
      7 C7         -1.2212    4.9101   -3.7916 C.ar      1 <0>         0.0000
      8 C8         -1.7566    5.2465   -5.0578 C.ar      1 <0>         0.0000
      9 C9         -1.0594    2.5856   -4.4907 C.ar      1 <0>         0.0000
     10 C10        -1.9185    7.5710   -4.3588 C.ar      1 <0>         0.0000
     11 C11        -1.8962    0.2279   -4.2243 C.2       1 <0>         0.0000
     12 C12         0.4140    0.6109   -5.1093 C.3       1 <0>         0.0000
     13 C13        -2.0441    9.8220   -3.6019 C.3       1 <0>         0.0000
     14 C14        -0.6896    1.1726   -4.1898 C.3       1 <0>         0.0000
     15 O1         -2.2673   -0.3829   -5.2182 O.2       1 <0>         0.0000
     16 O2         -2.5358    0.1355   -3.0285 O.3       1 <0>         0.0000
     17 O3         -2.2561    8.8605   -4.6344 O.3       1 <0>         0.0000
     18 H1         -2.3409    4.4874   -6.9871 H         1 <0>         0.0000
     19 H2         -0.6370    5.6692   -1.8623 H         1 <0>         0.0000
     20 H3         -1.7261    2.1496   -6.4833 H         1 <0>         0.0000
     21 H4         -1.2517    8.0070   -2.3661 H         1 <0>         0.0000
     22 H5         -0.4684    3.3114   -2.5599 H         1 <0>         0.0000
     23 H6         -2.5092    6.8452   -6.2897 H         1 <0>         0.0000
     24 H7          0.6316   -0.4301   -4.8281 H         1 <0>         0.0000
     25 H8          0.0725    0.6446   -6.1544 H         1 <0>         0.0000
     26 H9          1.3250    1.2178   -5.0015 H         1 <0>         0.0000
     27 H10        -2.3571   10.8155   -3.9554 H         1 <0>         0.0000
     28 H11        -2.6349    9.5451   -2.7163 H         1 <0>         0.0000
     29 H12        -0.9766    9.8466   -3.3374 H         1 <0>         0.0000
     30 H13        -0.2926    1.1475   -3.1643 H         1 <0>         0.0000
     31 H14        -3.2757   -0.4549   -3.1094 H         1 <0>         0.0000
@<TRIPOS>BOND
     1    1    3 ar
     2    1    8 ar
     3    2    4 ar
     4    2    7 ar
     5    3    9 ar
     6    4   10 ar
     7    5    7 ar
     8    5    9 ar
     9    6    8 ar
    10    6   10 ar
    11    7    8 ar
    12    9   14 1
    13   10   17 1
    14   11   14 1
    15   11   15 2
    16   11   16 1
    17   12   14 1
    18   13   17 1
    19    1   18 1
    20    2   19 1
    21    3   20 1
    22    4   21 1
    23    5   22 1
    24    6   23 1
    25   12   24 1
    26   12   25 1
    27   12   26 1
    28   13   27 1
    29   13   28 1
    30   13   29 1
    31   14   30 1
    32   16   31 1
@<TRIPOS>MOLECULE
naproxen_12
   31    32     0     0     0
SMALL
NO_CHARGES

@<TRIPOS>ATOM
      1 C1         -1.9208    4.2657   -5.9599 C.ar      1 <0>         0.0000
      2 C2         -1.0171    5.8936   -2.7485 C.ar      1 <0>         0.0000
      3 C3         -1.5792    2.9386   -5.6981 C.ar      1 <0>         0.0000
      4 C4         -1.3588    7.2207   -3.0104 C.ar      1 <0>         0.0000
      5 C5         -0.8620    3.5599   -3.4783 C.ar      1 <0>         0.0000
      6 C6         -2.0758    6.5994   -5.2301 C.ar      1 <0>         0.0000
      7 C7         -1.2003    4.9005   -3.7245 C.ar      1 <0>         0.0000
      8 C8         -1.7376    5.2587   -4.9839 C.ar      1 <0>         0.0000
      9 C9         -1.0508    2.5864   -4.4597 C.ar      1 <0>         0.0000
     10 C10        -1.8871    7.5729   -4.2488 C.ar      1 <0>         0.0000
     11 C11        -1.8976    0.2286   -4.2273 C.2       1 <0>         0.0000
     12 C12         0.4119    0.6148   -5.1126 C.3       1 <0>         0.0000
     13 C13        -2.7560    9.1588   -5.7933 C.3       1 <0>         0.0000
     14 C14        -0.6866    1.1672   -4.1816 C.3       1 <0>         0.0000
     15 O1         -2.2741   -0.3652   -5.2295 O.2       1 <0>         0.0000
     16 O2         -2.5345    0.1206   -3.0312 O.3       1 <0>         0.0000
     17 O3         -2.2197    8.8680   -4.5036 O.3       1 <0>         0.0000
     18 H1         -2.3304    4.5321   -6.9231 H         1 <0>         0.0000
     19 H2         -0.6076    5.6272   -1.7853 H         1 <0>         0.0000
     20 H3         -1.7249    2.1841   -6.4570 H         1 <0>         0.0000
     21 H4         -1.2131    7.9752   -2.2515 H         1 <0>         0.0000
     22 H5         -0.4515    3.2797   -2.5195 H         1 <0>         0.0000
     23 H6         -2.4862    6.8796   -6.1890 H         1 <0>         0.0000
     24 H7          0.6256   -0.4313   -4.8480 H         1 <0>         0.0000
     25 H8          0.0679    0.6661   -6.1561 H         1 <0>         0.0000
     26 H9          1.3260    1.2160   -4.9979 H         1 <0>         0.0000
     27 H10        -2.9793   10.2336   -5.8643 H         1 <0>         0.0000
     28 H11        -2.0221    8.8852   -6.5657 H         1 <0>         0.0000
     29 H12        -3.6801    8.5817   -5.9447 H         1 <0>         0.0000
     30 H13        -0.2870    1.1246   -3.1576 H         1 <0>         0.0000
     31 H14        -3.2772   -0.4651   -3.1192 H         1 <0>         0.0000
@<TRIPOS>BOND
     1    1    3 ar
     2    1    8 ar
     3    2    4 ar
     4    2    7 ar
     5    3    9 ar
     6    4   10 ar
     7    5    7 ar
     8    5    9 ar
     9    6    8 ar
    10    6   10 ar
    11    7    8 ar
    12    9   14 1
    13   10   17 1
    14   11   14 1
    15   11   15 2
    16   11   16 1
    17   12   14 1
    18   13   17 1
    19    1   18 1
    20    2   19 1
    21    3   20 1
    22    4   21 1
    23    5   22 1
    24    6   23 1
    25   12   24 1
    26   12   25 1
    27   12   26 1
    28   13   27 1
    29   13   28 1
    30   13   29 1
    31   14   30 1
    32   16   31 1
@<TRIPOS>MOLECULE
naproxen_12
   31    32     0     0     0
SMALL
NO_CHARGES

@<TRIPOS>ATOM
      1 C1         -2.1344    4.5670   -3.4316 C.ar      1 <0>         0.0000
      2 C2         -0.3890    5.4867   -6.5760 C.ar      1 <0>         0.0000
      3 C3         -1.8096    3.2144   -3.3254 C.ar      1 <0>         0.0000
      4 C4         -0.7138    6.8394   -6.6821 C.ar      1 <0>         0.0000
      5 C5         -0.5402    3.3573   -5.3738 C.ar      1 <0>         0.0000
      6 C6         -1.9834    6.6964   -4.6338 C.ar      1 <0>         0.0000
      7 C7         -0.8572    4.7199   -5.4966 C.ar      1 <0>         0.0000
      8 C8         -1.6663    5.3338   -4.5110 C.ar      1 <0>         0.0000
      9 C9         -1.0140    2.6106   -4.2946 C.ar      1 <0>         0.0000
     10 C10        -1.5095    7.4431   -5.7129 C.ar      1 <0>         0.0000
     11 C11        -1.9071    0.2665   -4.1016 C.2       1 <0>         0.0000
     12 C12         0.2517    0.6551   -5.3080 C.3       1 <0>         0.0000
     13 C13        -1.3096    9.4671   -6.9455 C.3       1 <0>         0.0000
     14 C14        -0.6675    1.1647   -4.1792 C.3       1 <0>         0.0000
     15 O1         -2.7709    0.3542   -3.2386 O.2       1 <0>         0.0000
     16 O2         -1.9563   -0.6619   -5.0933 O.3       1 <0>         0.0000
     17 O3         -1.8264    8.7627   -5.8175 O.3       1 <0>         0.0000
     18 H1         -2.7523    5.0292   -2.6759 H         1 <0>         0.0000
     19 H2          0.2289    5.0246   -7.3317 H         1 <0>         0.0000
     20 H3         -2.1758    2.6354   -2.4905 H         1 <0>         0.0000
     21 H4         -0.3476    7.4184   -7.5170 H         1 <0>         0.0000
     22 H5          0.0768    2.8825   -6.1223 H         1 <0>         0.0000
     23 H6         -2.6004    7.1712   -3.8853 H         1 <0>         0.0000
     24 H7          0.4621   -0.4138   -5.1558 H         1 <0>         0.0000
     25 H8         -0.2469    0.7959   -6.2784 H         1 <0>         0.0000
     26 H9          1.1955    1.2200   -5.2953 H         1 <0>         0.0000
     27 H10        -1.6396   10.5157   -6.9063 H         1 <0>         0.0000
     28 H11        -0.2104    9.4279   -6.9299 H         1 <0>         0.0000
     29 H12        -1.6801    9.0005   -7.8702 H         1 <0>         0.0000
     30 H13        -0.1167    1.0326   -3.2363 H         1 <0>         0.0000
     31 H14        -2.7379   -1.1924   -4.9925 H         1 <0>         0.0000
@<TRIPOS>BOND
     1    1    3 ar
     2    1    8 ar
     3    2    4 ar
     4    2    7 ar
     5    3    9 ar
     6    4   10 ar
     7    5    7 ar
     8    5    9 ar
     9    6    8 ar
    10    6   10 ar
    11    7    8 ar
    12    9   14 1
    13   10   17 1
    14   11   14 1
    15   11   15 2
    16   11   16 1
    17   12   14 1
    18   13   17 1
    19    1   18 1
    20    2   19 1
    21    3   20 1
    22    4   21 1
    23    5   22 1
    24    6   23 1
    25   12   24 1
    26   12   25 1
    27   12   26 1
    28   13   27 1
    29   13   28 1
    30   13   29 1
    31   14   30 1
    32   16   31 1
@<TRIPOS>MOLECULE
naproxen_12
   31    32     0     0     0
SMALL
NO_CHARGES

@<TRIPOS>ATOM
      1 C1         -0.8267    4.6596   -5.6330 C.ar      1 <0>         0.0000
      2 C2         -2.9213    5.2779   -2.6312 C.ar      1 <0>         0.0000
      3 C3         -0.5131    3.3096   -5.4728 C.ar      1 <0>         0.0000
      4 C4         -3.2349    6.6279   -2.7914 C.ar      1 <0>         0.0000
      5 C5         -1.7936    3.2536   -3.4272 C.ar      1 <0>         0.0000
      6 C6         -1.9542    6.6839   -4.8370 C.ar      1 <0>         0.0000
      7 C7         -2.1193    4.6120   -3.5724 C.ar      1 <0>         0.0000
      8 C8         -1.6286    5.3255   -4.6918 C.ar      1 <0>         0.0000
      9 C9         -0.9956    2.6080   -4.3720 C.ar      1 <0>         0.0000
     10 C10        -2.7523    7.3295   -3.8922 C.ar      1 <0>         0.0000
     11 C11        -1.9057    0.2784   -4.0986 C.2       1 <0>         0.0000
     12 C12         0.2611    0.6086   -5.3080 C.3       1 <0>         0.0000
     13 C13        -2.5306    9.3046   -5.1982 C.3       1 <0>         0.0000
     14 C14        -0.6596    1.1649   -4.2028 C.3       1 <0>         0.0000
     15 O1         -2.7728    0.4030   -3.2434 O.2       1 <0>         0.0000
     16 O2         -1.9569   -0.6849   -5.0563 O.3       1 <0>         0.0000
     17 O3         -3.0583    8.6467   -4.0475 O.3       1 <0>         0.0000
     18 H1         -0.4489    5.1980   -6.4895 H         1 <0>         0.0000
     19 H2         -3.2991    4.7394   -1.7747 H         1 <0>         0.0000
     20 H3          0.1046    2.8087   -6.2036 H         1 <0>         0.0000
     21 H4         -3.8525    7.1288   -2.0607 H         1 <0>         0.0000
     22 H5         -2.1647    2.7031   -2.5753 H         1 <0>         0.0000
     23 H6         -1.5830    7.2343   -5.6888 H         1 <0>         0.0000
     24 H7          0.4635   -0.4555   -5.1162 H         1 <0>         0.0000
     25 H8         -0.2322    0.7175   -6.2852 H         1 <0>         0.0000
     26 H9          1.2087    1.1672   -5.3113 H         1 <0>         0.0000
     27 H10        -2.8525   10.3564   -5.1998 H         1 <0>         0.0000
     28 H11        -1.4318    9.2576   -5.1756 H         1 <0>         0.0000
     29 H12        -2.9002    8.8067   -6.1068 H         1 <0>         0.0000
     30 H13        -0.1140    1.0632   -3.2531 H         1 <0>         0.0000
     31 H14        -2.7425   -1.2062   -4.9401 H         1 <0>         0.0000
@<TRIPOS>BOND
     1    1    3 ar
     2    1    8 ar
     3    2    4 ar
     4    2    7 ar
     5    3    9 ar
     6    4   10 ar
     7    5    7 ar
     8    5    9 ar
     9    6    8 ar
    10    6   10 ar
    11    7    8 ar
    12    9   14 1
    13   10   17 1
    14   11   14 1
    15   11   15 2
    16   11   16 1
    17   12   14 1
    18   13   17 1
    19    1   18 1
    20    2   19 1
    21    3   20 1
    22    4   21 1
    23    5   22 1
    24    6   23 1
    25   12   24 1
    26   12   25 1
    27   12   26 1
    28   13   27 1
    29   13   28 1
    30   13   29 1
    31   14   30 1
    32   16   31 1
@<TRIPOS>MOLECULE
naproxen_12
   31    32     0     0     0
SMALL
NO_CHARGES

@<TRIPOS>ATOM
      1 C1         -0.3739    4.9057   -4.5094 C.ar      1 <0>         0.0000
      2 C2         -4.0022    4.6565   -5.2533 C.ar      1 <0>         0.0000
      3 C3         -0.0482    3.5669   -4.2904 C.ar      1 <0>         0.0000
      4 C4         -4.3278    5.9953   -5.4723 C.ar      1 <0>         0.0000
      5 C5         -2.3416    2.9395   -4.7080 C.ar      1 <0>         0.0000
      6 C6         -2.0344    6.6227   -5.0546 C.ar      1 <0>         0.0000
      7 C7         -2.6873    4.2822   -4.9318 C.ar      1 <0>         0.0000
      8 C8         -1.6887    5.2800   -4.8309 C.ar      1 <0>         0.0000
      9 C9         -1.0301    2.5857   -4.3896 C.ar      1 <0>         0.0000
     10 C10        -3.3458    6.9765   -5.3731 C.ar      1 <0>         0.0000
     11 C11        -1.8992    0.2297   -4.2358 C.2       1 <0>         0.0000
     12 C12         0.4173    0.6226   -5.0995 C.3       1 <0>         0.0000
     13 C13        -2.6095    9.2359   -5.4687 C.3       1 <0>         0.0000
     14 C14        -0.6800    1.1551   -4.1555 C.3       1 <0>         0.0000
     15 O1         -2.2770   -0.3284   -5.2578 O.2       1 <0>         0.0000
     16 O2         -2.5419    0.0894   -3.0462 O.3       1 <0>         0.0000
     17 O3         -3.6645    8.2826   -5.5864 O.3       1 <0>         0.0000
     18 H1          0.3930    5.6621   -4.4309 H         1 <0>         0.0000
     19 H2         -4.7691    3.9001   -5.3319 H         1 <0>         0.0000
     20 H3          0.9666    3.2918   -4.0438 H         1 <0>         0.0000
     21 H4         -5.3426    6.2704   -5.7189 H         1 <0>         0.0000
     22 H5         -3.0987    2.1730   -4.7833 H         1 <0>         0.0000
     23 H6         -1.2773    7.3892   -4.9792 H         1 <0>         0.0000
     24 H7          0.6204   -0.4334   -4.8677 H         1 <0>         0.0000
     25 H8          0.0780    0.7103   -6.1422 H         1 <0>         0.0000
     26 H9          1.3363    1.2113   -4.9622 H         1 <0>         0.0000
     27 H10        -3.0025   10.2444   -5.6646 H         1 <0>         0.0000
     28 H11        -2.1917    9.1964   -4.4519 H         1 <0>         0.0000
     29 H12        -1.8207    9.0016   -6.1986 H         1 <0>         0.0000
     30 H13        -0.2850    1.0762   -3.1319 H         1 <0>         0.0000
     31 H14        -3.2896   -0.4863   -3.1556 H         1 <0>         0.0000
@<TRIPOS>BOND
     1    1    3 ar
     2    1    8 ar
     3    2    4 ar
     4    2    7 ar
     5    3    9 ar
     6    4   10 ar
     7    5    7 ar
     8    5    9 ar
     9    6    8 ar
    10    6   10 ar
    11    7    8 ar
    12    9   14 1
    13   10   17 1
    14   11   14 1
    15   11   15 2
    16   11   16 1
    17   12   14 1
    18   13   17 1
    19    1   18 1
    20    2   19 1
    21    3   20 1
    22    4   21 1
    23    5   22 1
    24    6   23 1
    25   12   24 1
    26   12   25 1
    27   12   26 1
    28   13   27 1
    29   13   28 1
    30   13   29 1
    31   14   30 1
    32   16   31 1
@<TRIPOS>MOLECULE
naproxen_12
   31    32     0     0     0
SMALL
NO_CHARGES

@<TRIPOS>ATOM
      1 C1         -0.8543    4.6597   -5.6511 C.ar      1 <0>         0.0000
      2 C2         -2.9534    5.2777   -2.6525 C.ar      1 <0>         0.0000
      3 C3         -0.5314    3.3126   -5.4846 C.ar      1 <0>         0.0000
      4 C4         -3.2762    6.6247   -2.8190 C.ar      1 <0>         0.0000
      5 C5         -1.8118    3.2575   -3.4388 C.ar      1 <0>         0.0000
      6 C6         -1.9957    6.6799   -4.8647 C.ar      1 <0>         0.0000
      7 C7         -2.1468    4.6129   -3.5904 C.ar      1 <0>         0.0000
      8 C8         -1.6608    5.3245   -4.7131 C.ar      1 <0>         0.0000
      9 C9         -1.0093    2.6129   -4.3806 C.ar      1 <0>         0.0000
     10 C10        -2.7982    7.3245   -3.9230 C.ar      1 <0>         0.0000
     11 C11        -1.9035    0.2784   -4.0963 C.2       1 <0>         0.0000
     12 C12         0.2611    0.6177   -5.3071 C.3       1 <0>         0.0000
     13 C13        -3.9371    9.2366   -3.0847 C.3       1 <0>         0.0000
     14 C14        -0.6635    1.1729   -4.2045 C.3       1 <0>         0.0000
     15 O1         -2.7715    0.4012   -3.2418 O.2       1 <0>         0.0000
     16 O2         -1.9480   -0.6897   -5.0495 O.3       1 <0>         0.0000
     17 O3         -3.1132    8.6389   -4.0845 O.3       1 <0>         0.0000
     18 H1         -0.4800    5.1967   -6.5101 H         1 <0>         0.0000
     19 H2         -3.3276    4.7407   -1.7935 H         1 <0>         0.0000
     20 H3          0.0897    2.8125   -6.2129 H         1 <0>         0.0000
     21 H4         -3.8973    7.1248   -2.0907 H         1 <0>         0.0000
     22 H5         -2.1793    2.7085   -2.5844 H         1 <0>         0.0000
     23 H6         -1.6281    7.2289   -5.7191 H         1 <0>         0.0000
     24 H7          0.4708   -0.4440   -5.1103 H         1 <0>         0.0000
     25 H8         -0.2327    0.7187   -6.2848 H         1 <0>         0.0000
     26 H9          1.2049    1.1828   -5.3129 H         1 <0>         0.0000
     27 H10        -4.1126   10.2928   -3.3368 H         1 <0>         0.0000
     28 H11        -4.8996    8.7061   -3.0376 H         1 <0>         0.0000
     29 H12        -3.4344    9.1714   -2.1084 H         1 <0>         0.0000
     30 H13        -0.1173    1.0794   -3.2543 H         1 <0>         0.0000
     31 H14        -2.7301   -1.2158   -4.9310 H         1 <0>         0.0000
@<TRIPOS>BOND
     1    1    3 ar
     2    1    8 ar
     3    2    4 ar
     4    2    7 ar
     5    3    9 ar
     6    4   10 ar
     7    5    7 ar
     8    5    9 ar
     9    6    8 ar
    10    6   10 ar
    11    7    8 ar
    12    9   14 1
    13   10   17 1
    14   11   14 1
    15   11   15 2
    16   11   16 1
    17   12   14 1
    18   13   17 1
    19    1   18 1
    20    2   19 1
    21    3   20 1
    22    4   21 1
    23    5   22 1
    24    6   23 1
    25   12   24 1
    26   12   25 1
    27   12   26 1
    28   13   27 1
    29   13   28 1
    30   13   29 1
    31   14   30 1
    32   16   31 1
@<TRIPOS>MOLECULE
naproxen_12
   31    32     0     0     0
SMALL
NO_CHARGES

@<TRIPOS>ATOM
      1 C1         -0.4083    4.9132   -4.5369 C.ar      1 <0>         0.0000
      2 C2         -4.0339    4.6288   -5.2814 C.ar      1 <0>         0.0000
      3 C3         -0.0717    3.5787   -4.3085 C.ar      1 <0>         0.0000
      4 C4         -4.3704    5.9634   -5.5097 C.ar      1 <0>         0.0000
      5 C5         -2.3595    2.9295   -4.7232 C.ar      1 <0>         0.0000
      6 C6         -2.0826    6.6126   -5.0949 C.ar      1 <0>         0.0000
      7 C7         -2.7162    4.2677   -4.9564 C.ar      1 <0>         0.0000
      8 C8         -1.7260    5.2744   -4.8618 C.ar      1 <0>         0.0000
      9 C9         -1.0454    2.5887   -4.4015 C.ar      1 <0>         0.0000
     10 C10        -3.3967    6.9534   -5.4167 C.ar      1 <0>         0.0000
     11 C11        -1.8951    0.2267   -4.2321 C.2       1 <0>         0.0000
     12 C12         0.4187    0.6329   -5.0970 C.3       1 <0>         0.0000
     13 C13        -5.0871    8.5343   -5.9633 C.3       1 <0>         0.0000
     14 C14        -0.6836    1.1627   -4.1574 C.3       1 <0>         0.0000
     15 O1         -2.2675   -0.3415   -5.2505 O.2       1 <0>         0.0000
     16 O2         -2.5374    0.0893   -3.0420 O.3       1 <0>         0.0000
     17 O3         -3.7260    8.2552   -5.6392 O.3       1 <0>         0.0000
     18 H1          0.3523    5.6764   -4.4630 H         1 <0>         0.0000
     19 H2         -4.7944    3.8656   -5.3552 H         1 <0>         0.0000
     20 H3          0.9452    3.3137   -4.0593 H         1 <0>         0.0000
     21 H4         -5.3873    6.2284   -5.7589 H         1 <0>         0.0000
     22 H5         -3.1101    2.1562   -4.7937 H         1 <0>         0.0000
     23 H6         -1.3320    7.3859   -5.0243 H         1 <0>         0.0000
     24 H7          0.6304   -0.4197   -4.8578 H         1 <0>         0.0000
     25 H8          0.0795    0.7106   -6.1405 H         1 <0>         0.0000
     26 H9          1.3327    1.2301   -4.9632 H         1 <0>         0.0000
     27 H10        -5.2137    9.6162   -6.1167 H         1 <0>         0.0000
     28 H11        -5.3618    7.9990   -6.8842 H         1 <0>         0.0000
     29 H12        -5.7356    8.2026   -5.1390 H         1 <0>         0.0000
     30 H13        -0.2886    1.0941   -3.1330 H         1 <0>         0.0000
     31 H14        -3.2802   -0.4934   -3.1480 H         1 <0>         0.0000
@<TRIPOS>BOND
     1    1    3 ar
     2    1    8 ar
     3    2    4 ar
     4    2    7 ar
     5    3    9 ar
     6    4   10 ar
     7    5    7 ar
     8    5    9 ar
     9    6    8 ar
    10    6   10 ar
    11    7    8 ar
    12    9   14 1
    13   10   17 1
    14   11   14 1
    15   11   15 2
    16   11   16 1
    17   12   14 1
    18   13   17 1
    19    1   18 1
    20    2   19 1
    21    3   20 1
    22    4   21 1
    23    5   22 1
    24    6   23 1
    25   12   24 1
    26   12   25 1
    27   12   26 1
    28   13   27 1
    29   13   28 1
    30   13   29 1
    31   14   30 1
    32   16   31 1
