@<TRIPOS>MOLECULE
*****
   32    33     0     0     0
SMALL
NO_CHARGES

@<TRIPOS>ATOM
      1 C1         -3.3535    1.8971    5.4596 C.2       1 <0>         0.0000
      2 C2         -1.9436    1.8062    5.3750 C.2       1 <0>         0.0000
      3 C3          1.8851   -1.0363   -0.1124 C.ar      1 <0>         0.0000
      4 C4          1.7997   -1.0786    2.6757 C.ar      1 <0>         0.0000
      5 C5         -3.8491    0.8649    4.6975 C.2       1 <0>         0.0000
      6 C6          0.8066   -0.4630    0.5610 C.ar      1 <0>         0.0000
      7 C7          0.7638   -0.4841    1.9551 C.ar      1 <0>         0.0000
      8 C8          2.9210   -1.6309    0.6081 C.ar      1 <0>         0.0000
      9 C9          2.8783   -1.6520    2.0022 C.ar      1 <0>         0.0000
     10 C10        -1.6782    0.7248    4.5675 C.2       1 <0>         0.0000
     11 C11        -0.2597    0.1505   -0.2205 C.2       1 <0>         0.0000
     12 C12        -0.4053    0.0935    4.0823 C.3       1 <0>         0.0000
     13 N1          3.6819   -3.9315   -0.5023 N.pl3     1 <0>         0.0000
     14 N2         -0.3194    0.0914    2.6559 N.pl3     1 <0>         0.0000
     15 O1         -1.4439    0.2177    0.1184 O.2       1 <0>         0.0000
     16 O2          4.3156   -1.6812   -1.5886 O.2       1 <0>         0.0000
     17 O3          5.4206   -2.3623    0.5707 O.2       1 <0>         0.0000
     18 O4         -2.8344    0.1454    4.1504 O.3       1 <0>         0.0000
     19 O5          0.1899    0.6603   -1.3986 O.3       1 <0>         0.0000
     20 S1          4.2498   -2.3351   -0.2914 S.o2      1 <0>         0.0000
     21 Cl1         4.1349   -2.3756    2.9403 Cl        1 <0>         0.0000
     22 H1         -3.9356    2.6242    6.0070 H         1 <0>         0.0000
     23 H2         -1.2144    2.4507    5.8451 H         1 <0>         0.0000
     24 H3          1.9175   -1.0191   -1.1997 H         1 <0>         0.0000
     25 H4          1.7615   -1.0924    3.7631 H         1 <0>         0.0000
     26 H5         -4.8458    0.5254    4.4567 H         1 <0>         0.0000
     27 H6          0.4656    0.6319    4.4718 H         1 <0>         0.0000
     28 H7         -0.3260   -0.9438    4.4240 H         1 <0>         0.0000
     29 H8          3.3857   -4.2160   -1.4440 H         1 <0>         0.0000
     30 H9          4.1398   -4.6794    0.0326 H         1 <0>         0.0000
     31 H10        -1.0445    0.5076    2.1046 H         1 <0>         0.0000
     32 H11        -0.5205    1.0766   -1.9319 H         1 <0>         0.0000
@<TRIPOS>BOND
     1    1    2 1
     2    1    5 2
     3    2   10 2
     4    3    6 ar
     5    3    8 ar
     6    4    7 ar
     7    4    9 ar
     8    5   18 1
     9    6    7 ar
    10    6   11 1
    11    7   14 1
    12    8    9 ar
    13    8   20 1
    14    9   21 1
    15   10   12 1
    16   10   18 1
    17   11   15 2
    18   11   19 1
    19   12   14 1
    20   13   20 1
    21   16   20 2
    22   17   20 2
    23    1   22 1
    24    2   23 1
    25    3   24 1
    26    4   25 1
    27    5   26 1
    28   12   27 1
    29   12   28 1
    30   13   29 1
    31   13   30 1
    32   14   31 1
    33   19   32 1
@<TRIPOS>MOLECULE
*****
   32    33     0     0     0
SMALL
NO_CHARGES

@<TRIPOS>ATOM
      1 C1         -3.3535    1.8971    5.4596 C.2       1 <0>         0.0000
      2 C2         -1.9436    1.8062    5.3750 C.2       1 <0>         0.0000
      3 C3          1.8851   -1.0363   -0.1124 C.ar      1 <0>         0.0000
      4 C4          1.7997   -1.0786    2.6757 C.ar      1 <0>         0.0000
      5 C5         -3.8491    0.8649    4.6975 C.2       1 <0>         0.0000
      6 C6          0.8066   -0.4630    0.5610 C.ar      1 <0>         0.0000
      7 C7          0.7638   -0.4841    1.9551 C.ar      1 <0>         0.0000
      8 C8          2.9210   -1.6309    0.6081 C.ar      1 <0>         0.0000
      9 C9          2.8783   -1.6520    2.0022 C.ar      1 <0>         0.0000
     10 C10        -1.6782    0.7248    4.5675 C.2       1 <0>         0.0000
     11 C11        -0.2597    0.1505   -0.2205 C.2       1 <0>         0.0000
     12 C12        -0.4053    0.0935    4.0823 C.3       1 <0>         0.0000
     13 N1          5.3017   -0.9953   -0.4082 N.pl3     1 <0>         0.0000
     14 N2         -0.3194    0.0914    2.6559 N.pl3     1 <0>         0.0000
     15 O1         -1.4439    0.2177    0.1184 O.2       1 <0>         0.0000
     16 O2          4.8710   -3.3532    0.5407 O.2       1 <0>         0.0000
     17 O3          3.7708   -2.6745   -1.6219 O.2       1 <0>         0.0000
     18 O4         -2.8344    0.1454    4.1504 O.3       1 <0>         0.0000
     19 O5          0.1899    0.6603   -1.3986 O.3       1 <0>         0.0000
     20 S1          4.2498   -2.3351   -0.2914 S.o2      1 <0>         0.0000
     21 Cl1         4.1349   -2.3756    2.9403 Cl        1 <0>         0.0000
     22 H1         -3.9356    2.6242    6.0070 H         1 <0>         0.0000
     23 H2         -1.2144    2.4507    5.8451 H         1 <0>         0.0000
     24 H3          1.9175   -1.0191   -1.1997 H         1 <0>         0.0000
     25 H4          1.7615   -1.0924    3.7631 H         1 <0>         0.0000
     26 H5         -4.8458    0.5254    4.4567 H         1 <0>         0.0000
     27 H6          0.4656    0.6319    4.4718 H         1 <0>         0.0000
     28 H7         -0.3260   -0.9438    4.4240 H         1 <0>         0.0000
     29 H8          6.1638   -1.0106    0.1504 H         1 <0>         0.0000
     30 H9          5.4099   -0.5473   -1.3263 H         1 <0>         0.0000
     31 H10        -1.0445    0.5076    2.1046 H         1 <0>         0.0000
     32 H11        -0.5205    1.0766   -1.9319 H         1 <0>         0.0000
@<TRIPOS>BOND
     1    1    2 1
     2    1    5 2
     3    2   10 2
     4    3    6 ar
     5    3    8 ar
     6    4    7 ar
     7    4    9 ar
     8    5   18 1
     9    6    7 ar
    10    6   11 1
    11    7   14 1
    12    8    9 ar
    13    8   20 1
    14    9   21 1
    15   10   12 1
    16   10   18 1
    17   11   15 2
    18   11   19 1
    19   12   14 1
    20   13   20 1
    21   16   20 2
    22   17   20 2
    23    1   22 1
    24    2   23 1
    25    3   24 1
    26    4   25 1
    27    5   26 1
    28   12   27 1
    29   12   28 1
    30   13   29 1
    31   13   30 1
    32   14   31 1
    33   19   32 1
@<TRIPOS>MOLECULE
*****
   32    33     0     0     0
SMALL
NO_CHARGES

@<TRIPOS>ATOM
      1 C1         -3.7358    1.4037    5.0985 C.2       1 <0>         0.0000
      2 C2         -3.0078    0.4343    4.3680 C.2       1 <0>         0.0000
      3 C3          1.8851   -1.0363   -0.1124 C.ar      1 <0>         0.0000
      4 C4          1.7997   -1.0786    2.6757 C.ar      1 <0>         0.0000
      5 C5         -2.7992    2.2173    5.6924 C.2       1 <0>         0.0000
      6 C6          0.8066   -0.4630    0.5610 C.ar      1 <0>         0.0000
      7 C7          0.7638   -0.4841    1.9551 C.ar      1 <0>         0.0000
      8 C8          2.9210   -1.6309    0.6081 C.ar      1 <0>         0.0000
      9 C9          2.8783   -1.6520    2.0022 C.ar      1 <0>         0.0000
     10 C10        -1.6782    0.7248    4.5675 C.2       1 <0>         0.0000
     11 C11        -0.2597    0.1505   -0.2205 C.2       1 <0>         0.0000
     12 C12        -0.4053    0.0935    4.0823 C.3       1 <0>         0.0000
     13 N1          3.6819   -3.9315   -0.5023 N.pl3     1 <0>         0.0000
     14 N2         -0.3194    0.0914    2.6559 N.pl3     1 <0>         0.0000
     15 O1         -1.4439    0.2177    0.1184 O.2       1 <0>         0.0000
     16 O2          4.3156   -1.6812   -1.5886 O.2       1 <0>         0.0000
     17 O3          5.4206   -2.3623    0.5707 O.2       1 <0>         0.0000
     18 O4         -1.5425    1.8103    5.3736 O.3       1 <0>         0.0000
     19 O5          0.1899    0.6603   -1.3986 O.3       1 <0>         0.0000
     20 S1          4.2498   -2.3351   -0.2914 S.o2      1 <0>         0.0000
     21 Cl1         4.1349   -2.3756    2.9403 Cl        1 <0>         0.0000
     22 H1         -4.8088    1.4975    5.1820 H         1 <0>         0.0000
     23 H2         -3.4058   -0.3743    3.7717 H         1 <0>         0.0000
     24 H3          1.9175   -1.0191   -1.1997 H         1 <0>         0.0000
     25 H4          1.7615   -1.0924    3.7631 H         1 <0>         0.0000
     26 H5         -2.8613    3.0819    6.3368 H         1 <0>         0.0000
     27 H6          0.4656    0.6319    4.4718 H         1 <0>         0.0000
     28 H7         -0.3260   -0.9438    4.4240 H         1 <0>         0.0000
     29 H8          3.3857   -4.2160   -1.4440 H         1 <0>         0.0000
     30 H9          4.1398   -4.6794    0.0326 H         1 <0>         0.0000
     31 H10        -1.0445    0.5076    2.1046 H         1 <0>         0.0000
     32 H11        -0.5205    1.0766   -1.9319 H         1 <0>         0.0000
@<TRIPOS>BOND
     1    1    2 1
     2    1    5 2
     3    2   10 2
     4    3    6 ar
     5    3    8 ar
     6    4    7 ar
     7    4    9 ar
     8    5   18 1
     9    6    7 ar
    10    6   11 1
    11    7   14 1
    12    8    9 ar
    13    8   20 1
    14    9   21 1
    15   10   12 1
    16   10   18 1
    17   11   15 2
    18   11   19 1
    19   12   14 1
    20   13   20 1
    21   16   20 2
    22   17   20 2
    23    1   22 1
    24    2   23 1
    25    3   24 1
    26    4   25 1
    27    5   26 1
    28   12   27 1
    29   12   28 1
    30   13   29 1
    31   13   30 1
    32   14   31 1
    33   19   32 1
@<TRIPOS>MOLECULE
*****
   32    33     0     0     0
SMALL
NO_CHARGES

@<TRIPOS>ATOM
      1 C1         -3.7358    1.4037    5.0985 C.2       1 <0>         0.0000
      2 C2         -3.0078    0.4343    4.3680 C.2       1 <0>         0.0000
      3 C3          1.8851   -1.0363   -0.1124 C.ar      1 <0>         0.0000
      4 C4          1.7997   -1.0786    2.6757 C.ar      1 <0>         0.0000
      5 C5         -2.7992    2.2173    5.6924 C.2       1 <0>         0.0000
      6 C6          0.8066   -0.4630    0.5610 C.ar      1 <0>         0.0000
      7 C7          0.7638   -0.4841    1.9551 C.ar      1 <0>         0.0000
      8 C8          2.9210   -1.6309    0.6081 C.ar      1 <0>         0.0000
      9 C9          2.8783   -1.6520    2.0022 C.ar      1 <0>         0.0000
     10 C10        -1.6782    0.7248    4.5675 C.2       1 <0>         0.0000
     11 C11        -0.2597    0.1505   -0.2205 C.2       1 <0>         0.0000
     12 C12        -0.4053    0.0935    4.0823 C.3       1 <0>         0.0000
     13 N1          5.3017   -0.9953   -0.4082 N.pl3     1 <0>         0.0000
     14 N2         -0.3194    0.0914    2.6559 N.pl3     1 <0>         0.0000
     15 O1         -1.4439    0.2177    0.1184 O.2       1 <0>         0.0000
     16 O2          4.8710   -3.3532    0.5407 O.2       1 <0>         0.0000
     17 O3          3.7708   -2.6745   -1.6219 O.2       1 <0>         0.0000
     18 O4         -1.5425    1.8103    5.3736 O.3       1 <0>         0.0000
     19 O5          0.1899    0.6603   -1.3986 O.3       1 <0>         0.0000
     20 S1          4.2498   -2.3351   -0.2914 S.o2      1 <0>         0.0000
     21 Cl1         4.1349   -2.3756    2.9403 Cl        1 <0>         0.0000
     22 H1         -4.8088    1.4975    5.1820 H         1 <0>         0.0000
     23 H2         -3.4058   -0.3743    3.7717 H         1 <0>         0.0000
     24 H3          1.9175   -1.0191   -1.1997 H         1 <0>         0.0000
     25 H4          1.7615   -1.0924    3.7631 H         1 <0>         0.0000
     26 H5         -2.8613    3.0819    6.3368 H         1 <0>         0.0000
     27 H6          0.4656    0.6319    4.4718 H         1 <0>         0.0000
     28 H7         -0.3260   -0.9438    4.4240 H         1 <0>         0.0000
     29 H8          6.1638   -1.0106    0.1504 H         1 <0>         0.0000
     30 H9          5.4099   -0.5473   -1.3263 H         1 <0>         0.0000
     31 H10        -1.0445    0.5076    2.1046 H         1 <0>         0.0000
     32 H11        -0.5205    1.0766   -1.9319 H         1 <0>         0.0000
@<TRIPOS>BOND
     1    1    2 1
     2    1    5 2
     3    2   10 2
     4    3    6 ar
     5    3    8 ar
     6    4    7 ar
     7    4    9 ar
     8    5   18 1
     9    6    7 ar
    10    6   11 1
    11    7   14 1
    12    8    9 ar
    13    8   20 1
    14    9   21 1
    15   10   12 1
    16   10   18 1
    17   11   15 2
    18   11   19 1
    19   12   14 1
    20   13   20 1
    21   16   20 2
    22   17   20 2
    23    1   22 1
    24    2   23 1
    25    3   24 1
    26    4   25 1
    27    5   26 1
    28   12   27 1
    29   12   28 1
    30   13   29 1
    31   13   30 1
    32   14   31 1
    33   19   32 1
@<TRIPOS>MOLECULE
*****
   32    33     0     0     0
SMALL
NO_CHARGES

@<TRIPOS>ATOM
      1 C1         -3.3535    1.8971    5.4596 C.2       1 <0>         0.0000
      2 C2         -1.9436    1.8062    5.3750 C.2       1 <0>         0.0000
      3 C3          1.8851   -1.0363   -0.1124 C.ar      1 <0>         0.0000
      4 C4          1.7997   -1.0786    2.6757 C.ar      1 <0>         0.0000
      5 C5         -3.8491    0.8649    4.6975 C.2       1 <0>         0.0000
      6 C6          0.8066   -0.4630    0.5610 C.ar      1 <0>         0.0000
      7 C7          0.7638   -0.4841    1.9551 C.ar      1 <0>         0.0000
      8 C8          2.9210   -1.6309    0.6081 C.ar      1 <0>         0.0000
      9 C9          2.8783   -1.6520    2.0022 C.ar      1 <0>         0.0000
     10 C10        -1.6782    0.7248    4.5675 C.2       1 <0>         0.0000
     11 C11        -0.2597    0.1505   -0.2205 C.2       1 <0>         0.0000
     12 C12        -0.4053    0.0935    4.0823 C.3       1 <0>         0.0000
     13 N1          3.7571   -2.0119   -1.8940 N.pl3     1 <0>         0.0000
     14 N2         -0.3194    0.0914    2.6559 N.pl3     1 <0>         0.0000
     15 O1         -1.4439    0.2177    0.1184 O.2       1 <0>         0.0000
     16 O2          5.4503   -1.5673   -0.0016 O.2       1 <0>         0.0000
     17 O3          4.2353   -3.7732   -0.0757 O.2       1 <0>         0.0000
     18 O4         -2.8344    0.1454    4.1504 O.3       1 <0>         0.0000
     19 O5          0.1899    0.6603   -1.3986 O.3       1 <0>         0.0000
     20 S1          4.2498   -2.3351   -0.2914 S.o2      1 <0>         0.0000
     21 Cl1         4.1349   -2.3756    2.9403 Cl        1 <0>         0.0000
     22 H1         -3.9356    2.6242    6.0070 H         1 <0>         0.0000
     23 H2         -1.2144    2.4507    5.8451 H         1 <0>         0.0000
     24 H3          1.9175   -1.0191   -1.1997 H         1 <0>         0.0000
     25 H4          1.7615   -1.0924    3.7631 H         1 <0>         0.0000
     26 H5         -4.8458    0.5254    4.4567 H         1 <0>         0.0000
     27 H6          0.4656    0.6319    4.4718 H         1 <0>         0.0000
     28 H7         -0.3260   -0.9438    4.4240 H         1 <0>         0.0000
     29 H8          4.2724   -1.2958   -2.4203 H         1 <0>         0.0000
     30 H9          3.4412   -2.8026   -2.4687 H         1 <0>         0.0000
     31 H10        -1.0445    0.5076    2.1046 H         1 <0>         0.0000
     32 H11        -0.5205    1.0766   -1.9319 H         1 <0>         0.0000
@<TRIPOS>BOND
     1    1    2 1
     2    1    5 2
     3    2   10 2
     4    3    6 ar
     5    3    8 ar
     6    4    7 ar
     7    4    9 ar
     8    5   18 1
     9    6    7 ar
    10    6   11 1
    11    7   14 1
    12    8    9 ar
    13    8   20 1
    14    9   21 1
    15   10   12 1
    16   10   18 1
    17   11   15 2
    18   11   19 1
    19   12   14 1
    20   13   20 1
    21   16   20 2
    22   17   20 2
    23    1   22 1
    24    2   23 1
    25    3   24 1
    26    4   25 1
    27    5   26 1
    28   12   27 1
    29   12   28 1
    30   13   29 1
    31   13   30 1
    32   14   31 1
    33   19   32 1
@<TRIPOS>MOLECULE
*****
   32    33     0     0     0
SMALL
NO_CHARGES

@<TRIPOS>ATOM
      1 C1         -3.7358    1.4037    5.0985 C.2       1 <0>         0.0000
      2 C2         -3.0078    0.4343    4.3680 C.2       1 <0>         0.0000
      3 C3          1.8851   -1.0363   -0.1124 C.ar      1 <0>         0.0000
      4 C4          1.7997   -1.0786    2.6757 C.ar      1 <0>         0.0000
      5 C5         -2.7992    2.2173    5.6924 C.2       1 <0>         0.0000
      6 C6          0.8066   -0.4630    0.5610 C.ar      1 <0>         0.0000
      7 C7          0.7638   -0.4841    1.9551 C.ar      1 <0>         0.0000
      8 C8          2.9210   -1.6309    0.6081 C.ar      1 <0>         0.0000
      9 C9          2.8783   -1.6520    2.0022 C.ar      1 <0>         0.0000
     10 C10        -1.6782    0.7248    4.5675 C.2       1 <0>         0.0000
     11 C11        -0.2597    0.1505   -0.2205 C.2       1 <0>         0.0000
     12 C12        -0.4053    0.0935    4.0823 C.3       1 <0>         0.0000
     13 N1          3.7571   -2.0119   -1.8940 N.pl3     1 <0>         0.0000
     14 N2         -0.3194    0.0914    2.6559 N.pl3     1 <0>         0.0000
     15 O1         -1.4439    0.2177    0.1184 O.2       1 <0>         0.0000
     16 O2          5.4503   -1.5673   -0.0016 O.2       1 <0>         0.0000
     17 O3          4.2353   -3.7732   -0.0757 O.2       1 <0>         0.0000
     18 O4         -1.5425    1.8103    5.3736 O.3       1 <0>         0.0000
     19 O5          0.1899    0.6603   -1.3986 O.3       1 <0>         0.0000
     20 S1          4.2498   -2.3351   -0.2914 S.o2      1 <0>         0.0000
     21 Cl1         4.1349   -2.3756    2.9403 Cl        1 <0>         0.0000
     22 H1         -4.8088    1.4975    5.1820 H         1 <0>         0.0000
     23 H2         -3.4058   -0.3743    3.7717 H         1 <0>         0.0000
     24 H3          1.9175   -1.0191   -1.1997 H         1 <0>         0.0000
     25 H4          1.7615   -1.0924    3.7631 H         1 <0>         0.0000
     26 H5         -2.8613    3.0819    6.3368 H         1 <0>         0.0000
     27 H6          0.4656    0.6319    4.4718 H         1 <0>         0.0000
     28 H7         -0.3260   -0.9438    4.4240 H         1 <0>         0.0000
     29 H8          4.2724   -1.2958   -2.4203 H         1 <0>         0.0000
     30 H9          3.4412   -2.8026   -2.4687 H         1 <0>         0.0000
     31 H10        -1.0445    0.5076    2.1046 H         1 <0>         0.0000
     32 H11        -0.5205    1.0766   -1.9319 H         1 <0>         0.0000
@<TRIPOS>BOND
     1    1    2 1
     2    1    5 2
     3    2   10 2
     4    3    6 ar
     5    3    8 ar
     6    4    7 ar
     7    4    9 ar
     8    5   18 1
     9    6    7 ar
    10    6   11 1
    11    7   14 1
    12    8    9 ar
    13    8   20 1
    14    9   21 1
    15   10   12 1
    16   10   18 1
    17   11   15 2
    18   11   19 1
    19   12   14 1
    20   13   20 1
    21   16   20 2
    22   17   20 2
    23    1   22 1
    24    2   23 1
    25    3   24 1
    26    4   25 1
    27    5   26 1
    28   12   27 1
    29   12   28 1
    30   13   29 1
    31   13   30 1
    32   14   31 1
    33   19   32 1
@<TRIPOS>MOLECULE
*****
   32    33     0     0     0
SMALL
NO_CHARGES

@<TRIPOS>ATOM
      1 C1         -3.5484    1.8653    4.9895 C.2       1 <0>         0.0000
      2 C2         -2.4857    1.7191    4.0662 C.2       1 <0>         0.0000
      3 C3          1.8851   -1.0363   -0.1124 C.ar      1 <0>         0.0000
      4 C4          1.7997   -1.0786    2.6757 C.ar      1 <0>         0.0000
      5 C5         -3.3148    0.9497    5.9890 C.2       1 <0>         0.0000
      6 C6          0.8066   -0.4630    0.5610 C.ar      1 <0>         0.0000
      7 C7          0.7638   -0.4841    1.9551 C.ar      1 <0>         0.0000
      8 C8          2.9210   -1.6309    0.6081 C.ar      1 <0>         0.0000
      9 C9          2.8783   -1.6520    2.0022 C.ar      1 <0>         0.0000
     10 C10        -1.6782    0.7248    4.5675 C.2       1 <0>         0.0000
     11 C11        -0.2597    0.1505   -0.2205 C.2       1 <0>         0.0000
     12 C12        -0.4053    0.0935    4.0823 C.3       1 <0>         0.0000
     13 N1          3.6819   -3.9315   -0.5023 N.pl3     1 <0>         0.0000
     14 N2         -0.3194    0.0914    2.6559 N.pl3     1 <0>         0.0000
     15 O1         -0.9578    1.0989    0.1469 O.2       1 <0>         0.0000
     16 O2          4.3156   -1.6812   -1.5886 O.2       1 <0>         0.0000
     17 O3          5.4206   -2.3623    0.5707 O.2       1 <0>         0.0000
     18 O4         -2.1766    0.2505    5.7394 O.3       1 <0>         0.0000
     19 O5         -0.4169   -0.4409   -1.4352 O.3       1 <0>         0.0000
     20 S1          4.2498   -2.3351   -0.2914 S.o2      1 <0>         0.0000
     21 Cl1         4.1349   -2.3756    2.9403 Cl        1 <0>         0.0000
     22 H1         -4.3808    2.5517    4.9333 H         1 <0>         0.0000
     23 H2         -2.3308    2.2712    3.1502 H         1 <0>         0.0000
     24 H3          1.9175   -1.0191   -1.1997 H         1 <0>         0.0000
     25 H4          1.7615   -1.0924    3.7631 H         1 <0>         0.0000
     26 H5         -3.8357    0.6860    6.8977 H         1 <0>         0.0000
     27 H6          0.4656    0.6319    4.4718 H         1 <0>         0.0000
     28 H7         -0.3260   -0.9438    4.4240 H         1 <0>         0.0000
     29 H8          3.3857   -4.2160   -1.4440 H         1 <0>         0.0000
     30 H9          4.1398   -4.6794    0.0326 H         1 <0>         0.0000
     31 H10        -1.0445    0.5076    2.1046 H         1 <0>         0.0000
     32 H11        -1.1320   -0.0344   -1.9696 H         1 <0>         0.0000
@<TRIPOS>BOND
     1    1    2 1
     2    1    5 2
     3    2   10 2
     4    3    6 ar
     5    3    8 ar
     6    4    7 ar
     7    4    9 ar
     8    5   18 1
     9    6    7 ar
    10    6   11 1
    11    7   14 1
    12    8    9 ar
    13    8   20 1
    14    9   21 1
    15   10   12 1
    16   10   18 1
    17   11   15 2
    18   11   19 1
    19   12   14 1
    20   13   20 1
    21   16   20 2
    22   17   20 2
    23    1   22 1
    24    2   23 1
    25    3   24 1
    26    4   25 1
    27    5   26 1
    28   12   27 1
    29   12   28 1
    30   13   29 1
    31   13   30 1
    32   14   31 1
    33   19   32 1
@<TRIPOS>MOLECULE
*****
   32    33     0     0     0
SMALL
NO_CHARGES

@<TRIPOS>ATOM
      1 C1         -3.5484    1.8653    4.9895 C.2       1 <0>         0.0000
      2 C2         -2.4857    1.7191    4.0662 C.2       1 <0>         0.0000
      3 C3          1.8851   -1.0363   -0.1124 C.ar      1 <0>         0.0000
      4 C4          1.7997   -1.0786    2.6757 C.ar      1 <0>         0.0000
      5 C5         -3.3148    0.9497    5.9890 C.2       1 <0>         0.0000
      6 C6          0.8066   -0.4630    0.5610 C.ar      1 <0>         0.0000
      7 C7          0.7638   -0.4841    1.9551 C.ar      1 <0>         0.0000
      8 C8          2.9210   -1.6309    0.6081 C.ar      1 <0>         0.0000
      9 C9          2.8783   -1.6520    2.0022 C.ar      1 <0>         0.0000
     10 C10        -1.6782    0.7248    4.5675 C.2       1 <0>         0.0000
     11 C11        -0.2597    0.1505   -0.2205 C.2       1 <0>         0.0000
     12 C12        -0.4053    0.0935    4.0823 C.3       1 <0>         0.0000
     13 N1          5.3017   -0.9953   -0.4082 N.pl3     1 <0>         0.0000
     14 N2         -0.3194    0.0914    2.6559 N.pl3     1 <0>         0.0000
     15 O1         -0.9578    1.0989    0.1469 O.2       1 <0>         0.0000
     16 O2          4.8710   -3.3532    0.5407 O.2       1 <0>         0.0000
     17 O3          3.7708   -2.6745   -1.6219 O.2       1 <0>         0.0000
     18 O4         -2.1766    0.2505    5.7394 O.3       1 <0>         0.0000
     19 O5         -0.4169   -0.4409   -1.4352 O.3       1 <0>         0.0000
     20 S1          4.2498   -2.3351   -0.2914 S.o2      1 <0>         0.0000
     21 Cl1         4.1349   -2.3756    2.9403 Cl        1 <0>         0.0000
     22 H1         -4.3808    2.5517    4.9333 H         1 <0>         0.0000
     23 H2         -2.3308    2.2712    3.1502 H         1 <0>         0.0000
     24 H3          1.9175   -1.0191   -1.1997 H         1 <0>         0.0000
     25 H4          1.7615   -1.0924    3.7631 H         1 <0>         0.0000
     26 H5         -3.8357    0.6860    6.8977 H         1 <0>         0.0000
     27 H6          0.4656    0.6319    4.4718 H         1 <0>         0.0000
     28 H7         -0.3260   -0.9438    4.4240 H         1 <0>         0.0000
     29 H8          6.1638   -1.0106    0.1504 H         1 <0>         0.0000
     30 H9          5.4099   -0.5473   -1.3263 H         1 <0>         0.0000
     31 H10        -1.0445    0.5076    2.1046 H         1 <0>         0.0000
     32 H11        -1.1320   -0.0344   -1.9696 H         1 <0>         0.0000
@<TRIPOS>BOND
     1    1    2 1
     2    1    5 2
     3    2   10 2
     4    3    6 ar
     5    3    8 ar
     6    4    7 ar
     7    4    9 ar
     8    5   18 1
     9    6    7 ar
    10    6   11 1
    11    7   14 1
    12    8    9 ar
    13    8   20 1
    14    9   21 1
    15   10   12 1
    16   10   18 1
    17   11   15 2
    18   11   19 1
    19   12   14 1
    20   13   20 1
    21   16   20 2
    22   17   20 2
    23    1   22 1
    24    2   23 1
    25    3   24 1
    26    4   25 1
    27    5   26 1
    28   12   27 1
    29   12   28 1
    30   13   29 1
    31   13   30 1
    32   14   31 1
    33   19   32 1
@<TRIPOS>MOLECULE
*****
   32    33     0     0     0
SMALL
NO_CHARGES

@<TRIPOS>ATOM
      1 C1         -3.5408    1.4356    5.5685 C.2       1 <0>         0.0000
      2 C2         -2.4657    0.5215    5.6768 C.2       1 <0>         0.0000
      3 C3          1.8851   -1.0363   -0.1124 C.ar      1 <0>         0.0000
      4 C4          1.7997   -1.0786    2.6757 C.ar      1 <0>         0.0000
      5 C5         -3.3335    2.1325    4.4009 C.2       1 <0>         0.0000
      6 C6          0.8066   -0.4630    0.5610 C.ar      1 <0>         0.0000
      7 C7          0.7638   -0.4841    1.9551 C.ar      1 <0>         0.0000
      8 C8          2.9210   -1.6309    0.6081 C.ar      1 <0>         0.0000
      9 C9          2.8783   -1.6520    2.0022 C.ar      1 <0>         0.0000
     10 C10        -1.6782    0.7248    4.5675 C.2       1 <0>         0.0000
     11 C11        -0.2597    0.1505   -0.2205 C.2       1 <0>         0.0000
     12 C12        -0.4053    0.0935    4.0823 C.3       1 <0>         0.0000
     13 N1          3.6819   -3.9315   -0.5023 N.pl3     1 <0>         0.0000
     14 N2         -0.3194    0.0914    2.6559 N.pl3     1 <0>         0.0000
     15 O1         -0.9578    1.0989    0.1469 O.2       1 <0>         0.0000
     16 O2          4.3156   -1.6812   -1.5886 O.2       1 <0>         0.0000
     17 O3          5.4206   -2.3623    0.5707 O.2       1 <0>         0.0000
     18 O4         -2.2003    1.7052    3.7847 O.3       1 <0>         0.0000
     19 O5         -0.4169   -0.4409   -1.4352 O.3       1 <0>         0.0000
     20 S1          4.2498   -2.3351   -0.2914 S.o2      1 <0>         0.0000
     21 Cl1         4.1349   -2.3756    2.9403 Cl        1 <0>         0.0000
     22 H1         -4.3636    1.5700    6.2557 H         1 <0>         0.0000
     23 H2         -2.2895   -0.1948    6.4666 H         1 <0>         0.0000
     24 H3          1.9175   -1.0191   -1.1997 H         1 <0>         0.0000
     25 H4          1.7615   -1.0924    3.7631 H         1 <0>         0.0000
     26 H5         -3.8715    2.9213    3.8959 H         1 <0>         0.0000
     27 H6          0.4656    0.6319    4.4718 H         1 <0>         0.0000
     28 H7         -0.3260   -0.9438    4.4240 H         1 <0>         0.0000
     29 H8          3.3857   -4.2160   -1.4440 H         1 <0>         0.0000
     30 H9          4.1398   -4.6794    0.0326 H         1 <0>         0.0000
     31 H10        -1.0445    0.5076    2.1046 H         1 <0>         0.0000
     32 H11        -1.1320   -0.0344   -1.9696 H         1 <0>         0.0000
@<TRIPOS>BOND
     1    1    2 1
     2    1    5 2
     3    2   10 2
     4    3    6 ar
     5    3    8 ar
     6    4    7 ar
     7    4    9 ar
     8    5   18 1
     9    6    7 ar
    10    6   11 1
    11    7   14 1
    12    8    9 ar
    13    8   20 1
    14    9   21 1
    15   10   12 1
    16   10   18 1
    17   11   15 2
    18   11   19 1
    19   12   14 1
    20   13   20 1
    21   16   20 2
    22   17   20 2
    23    1   22 1
    24    2   23 1
    25    3   24 1
    26    4   25 1
    27    5   26 1
    28   12   27 1
    29   12   28 1
    30   13   29 1
    31   13   30 1
    32   14   31 1
    33   19   32 1
@<TRIPOS>MOLECULE
*****
   32    33     0     0     0
SMALL
NO_CHARGES

@<TRIPOS>ATOM
      1 C1         -3.5408    1.4356    5.5685 C.2       1 <0>         0.0000
      2 C2         -2.4657    0.5215    5.6768 C.2       1 <0>         0.0000
      3 C3          1.8851   -1.0363   -0.1124 C.ar      1 <0>         0.0000
      4 C4          1.7997   -1.0786    2.6757 C.ar      1 <0>         0.0000
      5 C5         -3.3335    2.1325    4.4009 C.2       1 <0>         0.0000
      6 C6          0.8066   -0.4630    0.5610 C.ar      1 <0>         0.0000
      7 C7          0.7638   -0.4841    1.9551 C.ar      1 <0>         0.0000
      8 C8          2.9210   -1.6309    0.6081 C.ar      1 <0>         0.0000
      9 C9          2.8783   -1.6520    2.0022 C.ar      1 <0>         0.0000
     10 C10        -1.6782    0.7248    4.5675 C.2       1 <0>         0.0000
     11 C11        -0.2597    0.1505   -0.2205 C.2       1 <0>         0.0000
     12 C12        -0.4053    0.0935    4.0823 C.3       1 <0>         0.0000
     13 N1          5.3017   -0.9953   -0.4082 N.pl3     1 <0>         0.0000
     14 N2         -0.3194    0.0914    2.6559 N.pl3     1 <0>         0.0000
     15 O1         -0.9578    1.0989    0.1469 O.2       1 <0>         0.0000
     16 O2          4.8710   -3.3532    0.5407 O.2       1 <0>         0.0000
     17 O3          3.7708   -2.6745   -1.6219 O.2       1 <0>         0.0000
     18 O4         -2.2003    1.7052    3.7847 O.3       1 <0>         0.0000
     19 O5         -0.4169   -0.4409   -1.4352 O.3       1 <0>         0.0000
     20 S1          4.2498   -2.3351   -0.2914 S.o2      1 <0>         0.0000
     21 Cl1         4.1349   -2.3756    2.9403 Cl        1 <0>         0.0000
     22 H1         -4.3636    1.5700    6.2557 H         1 <0>         0.0000
     23 H2         -2.2895   -0.1948    6.4666 H         1 <0>         0.0000
     24 H3          1.9175   -1.0191   -1.1997 H         1 <0>         0.0000
     25 H4          1.7615   -1.0924    3.7631 H         1 <0>         0.0000
     26 H5         -3.8715    2.9213    3.8959 H         1 <0>         0.0000
     27 H6          0.4656    0.6319    4.4718 H         1 <0>         0.0000
     28 H7         -0.3260   -0.9438    4.4240 H         1 <0>         0.0000
     29 H8          6.1638   -1.0106    0.1504 H         1 <0>         0.0000
     30 H9          5.4099   -0.5473   -1.3263 H         1 <0>         0.0000
     31 H10        -1.0445    0.5076    2.1046 H         1 <0>         0.0000
     32 H11        -1.1320   -0.0344   -1.9696 H         1 <0>         0.0000
@<TRIPOS>BOND
     1    1    2 1
     2    1    5 2
     3    2   10 2
     4    3    6 ar
     5    3    8 ar
     6    4    7 ar
     7    4    9 ar
     8    5   18 1
     9    6    7 ar
    10    6   11 1
    11    7   14 1
    12    8    9 ar
    13    8   20 1
    14    9   21 1
    15   10   12 1
    16   10   18 1
    17   11   15 2
    18   11   19 1
    19   12   14 1
    20   13   20 1
    21   16   20 2
    22   17   20 2
    23    1   22 1
    24    2   23 1
    25    3   24 1
    26    4   25 1
    27    5   26 1
    28   12   27 1
    29   12   28 1
    30   13   29 1
    31   13   30 1
    32   14   31 1
    33   19   32 1
@<TRIPOS>MOLECULE
*****
   32    33     0     0     0
SMALL
NO_CHARGES

@<TRIPOS>ATOM
      1 C1         -3.5484    1.8653    4.9895 C.2       1 <0>         0.0000
      2 C2         -2.4857    1.7191    4.0662 C.2       1 <0>         0.0000
      3 C3          1.8851   -1.0363   -0.1124 C.ar      1 <0>         0.0000
      4 C4          1.7997   -1.0786    2.6757 C.ar      1 <0>         0.0000
      5 C5         -3.3148    0.9497    5.9890 C.2       1 <0>         0.0000
      6 C6          0.8066   -0.4630    0.5610 C.ar      1 <0>         0.0000
      7 C7          0.7638   -0.4841    1.9551 C.ar      1 <0>         0.0000
      8 C8          2.9210   -1.6309    0.6081 C.ar      1 <0>         0.0000
      9 C9          2.8783   -1.6520    2.0022 C.ar      1 <0>         0.0000
     10 C10        -1.6782    0.7248    4.5675 C.2       1 <0>         0.0000
     11 C11        -0.2597    0.1505   -0.2205 C.2       1 <0>         0.0000
     12 C12        -0.4053    0.0935    4.0823 C.3       1 <0>         0.0000
     13 N1          3.7571   -2.0119   -1.8940 N.pl3     1 <0>         0.0000
     14 N2         -0.3194    0.0914    2.6559 N.pl3     1 <0>         0.0000
     15 O1         -0.9578    1.0989    0.1469 O.2       1 <0>         0.0000
     16 O2          5.4503   -1.5673   -0.0016 O.2       1 <0>         0.0000
     17 O3          4.2353   -3.7732   -0.0757 O.2       1 <0>         0.0000
     18 O4         -2.1766    0.2505    5.7394 O.3       1 <0>         0.0000
     19 O5         -0.4169   -0.4409   -1.4352 O.3       1 <0>         0.0000
     20 S1          4.2498   -2.3351   -0.2914 S.o2      1 <0>         0.0000
     21 Cl1         4.1349   -2.3756    2.9403 Cl        1 <0>         0.0000
     22 H1         -4.3808    2.5517    4.9333 H         1 <0>         0.0000
     23 H2         -2.3308    2.2712    3.1502 H         1 <0>         0.0000
     24 H3          1.9175   -1.0191   -1.1997 H         1 <0>         0.0000
     25 H4          1.7615   -1.0924    3.7631 H         1 <0>         0.0000
     26 H5         -3.8357    0.6860    6.8977 H         1 <0>         0.0000
     27 H6          0.4656    0.6319    4.4718 H         1 <0>         0.0000
     28 H7         -0.3260   -0.9438    4.4240 H         1 <0>         0.0000
     29 H8          4.2724   -1.2958   -2.4203 H         1 <0>         0.0000
     30 H9          3.4412   -2.8026   -2.4687 H         1 <0>         0.0000
     31 H10        -1.0445    0.5076    2.1046 H         1 <0>         0.0000
     32 H11        -1.1320   -0.0344   -1.9696 H         1 <0>         0.0000
@<TRIPOS>BOND
     1    1    2 1
     2    1    5 2
     3    2   10 2
     4    3    6 ar
     5    3    8 ar
     6    4    7 ar
     7    4    9 ar
     8    5   18 1
     9    6    7 ar
    10    6   11 1
    11    7   14 1
    12    8    9 ar
    13    8   20 1
    14    9   21 1
    15   10   12 1
    16   10   18 1
    17   11   15 2
    18   11   19 1
    19   12   14 1
    20   13   20 1
    21   16   20 2
    22   17   20 2
    23    1   22 1
    24    2   23 1
    25    3   24 1
    26    4   25 1
    27    5   26 1
    28   12   27 1
    29   12   28 1
    30   13   29 1
    31   13   30 1
    32   14   31 1
    33   19   32 1
@<TRIPOS>MOLECULE
*****
   32    33     0     0     0
SMALL
NO_CHARGES

@<TRIPOS>ATOM
      1 C1         -3.5408    1.4356    5.5685 C.2       1 <0>         0.0000
      2 C2         -2.4657    0.5215    5.6768 C.2       1 <0>         0.0000
      3 C3          1.8851   -1.0363   -0.1124 C.ar      1 <0>         0.0000
      4 C4          1.7997   -1.0786    2.6757 C.ar      1 <0>         0.0000
      5 C5         -3.3335    2.1325    4.4009 C.2       1 <0>         0.0000
      6 C6          0.8066   -0.4630    0.5610 C.ar      1 <0>         0.0000
      7 C7          0.7638   -0.4841    1.9551 C.ar      1 <0>         0.0000
      8 C8          2.9210   -1.6309    0.6081 C.ar      1 <0>         0.0000
      9 C9          2.8783   -1.6520    2.0022 C.ar      1 <0>         0.0000
     10 C10        -1.6782    0.7248    4.5675 C.2       1 <0>         0.0000
     11 C11        -0.2597    0.1505   -0.2205 C.2       1 <0>         0.0000
     12 C12        -0.4053    0.0935    4.0823 C.3       1 <0>         0.0000
     13 N1          3.7571   -2.0119   -1.8940 N.pl3     1 <0>         0.0000
     14 N2         -0.3194    0.0914    2.6559 N.pl3     1 <0>         0.0000
     15 O1         -0.9578    1.0989    0.1469 O.2       1 <0>         0.0000
     16 O2          5.4503   -1.5673   -0.0016 O.2       1 <0>         0.0000
     17 O3          4.2353   -3.7732   -0.0757 O.2       1 <0>         0.0000
     18 O4         -2.2003    1.7052    3.7847 O.3       1 <0>         0.0000
     19 O5         -0.4169   -0.4409   -1.4352 O.3       1 <0>         0.0000
     20 S1          4.2498   -2.3351   -0.2914 S.o2      1 <0>         0.0000
     21 Cl1         4.1349   -2.3756    2.9403 Cl        1 <0>         0.0000
     22 H1         -4.3636    1.5700    6.2557 H         1 <0>         0.0000
     23 H2         -2.2895   -0.1948    6.4666 H         1 <0>         0.0000
     24 H3          1.9175   -1.0191   -1.1997 H         1 <0>         0.0000
     25 H4          1.7615   -1.0924    3.7631 H         1 <0>         0.0000
     26 H5         -3.8715    2.9213    3.8959 H         1 <0>         0.0000
     27 H6          0.4656    0.6319    4.4718 H         1 <0>         0.0000
     28 H7         -0.3260   -0.9438    4.4240 H         1 <0>         0.0000
     29 H8          4.2724   -1.2958   -2.4203 H         1 <0>         0.0000
     30 H9          3.4412   -2.8026   -2.4687 H         1 <0>         0.0000
     31 H10        -1.0445    0.5076    2.1046 H         1 <0>         0.0000
     32 H11        -1.1320   -0.0344   -1.9696 H         1 <0>         0.0000
@<TRIPOS>BOND
     1    1    2 1
     2    1    5 2
     3    2   10 2
     4    3    6 ar
     5    3    8 ar
     6    4    7 ar
     7    4    9 ar
     8    5   18 1
     9    6    7 ar
    10    6   11 1
    11    7   14 1
    12    8    9 ar
    13    8   20 1
    14    9   21 1
    15   10   12 1
    16   10   18 1
    17   11   15 2
    18   11   19 1
    19   12   14 1
    20   13   20 1
    21   16   20 2
    22   17   20 2
    23    1   22 1
    24    2   23 1
    25    3   24 1
    26    4   25 1
    27    5   26 1
    28   12   27 1
    29   12   28 1
    30   13   29 1
    31   13   30 1
    32   14   31 1
    33   19   32 1
@<TRIPOS>MOLECULE
*****
   32    33     0     0     0
SMALL
NO_CHARGES

@<TRIPOS>ATOM
      1 C1         -2.6831    3.0752    5.0717 C.2       1 <0>         0.0000
      2 C2         -1.3248    2.7090    4.9163 C.2       1 <0>         0.0000
      3 C3          1.8851   -1.0363   -0.1124 C.ar      1 <0>         0.0000
      4 C4          1.7997   -1.0786    2.6757 C.ar      1 <0>         0.0000
      5 C5         -3.4209    1.9921    4.6542 C.2       1 <0>         0.0000
      6 C6          0.8066   -0.4630    0.5610 C.ar      1 <0>         0.0000
      7 C7          0.7638   -0.4841    1.9551 C.ar      1 <0>         0.0000
      8 C8          2.9210   -1.6309    0.6081 C.ar      1 <0>         0.0000
      9 C9          2.8783   -1.6520    2.0022 C.ar      1 <0>         0.0000
     10 C10        -1.3295    1.4281    4.4151 C.2       1 <0>         0.0000
     11 C11        -0.2597    0.1505   -0.2205 C.2       1 <0>         0.0000
     12 C12        -0.2376    0.4719    4.0308 C.3       1 <0>         0.0000
     13 N1          3.6819   -3.9315   -0.5023 N.pl3     1 <0>         0.0000
     14 N2         -0.3194    0.0914    2.6559 N.pl3     1 <0>         0.0000
     15 O1         -0.6026    1.3336   -0.1536 O.2       1 <0>         0.0000
     16 O2          4.3156   -1.6812   -1.5886 O.2       1 <0>         0.0000
     17 O3          5.4206   -2.3623    0.5707 O.2       1 <0>         0.0000
     18 O4         -2.6033    0.9838    4.2525 O.3       1 <0>         0.0000
     19 O5         -0.8607   -0.7347   -1.0602 O.3       1 <0>         0.0000
     20 S1          4.2498   -2.3351   -0.2914 S.o2      1 <0>         0.0000
     21 Cl1         4.1349   -2.3756    2.9403 Cl        1 <0>         0.0000
     22 H1         -3.0753    4.0116    5.4414 H         1 <0>         0.0000
     23 H2         -0.4533    3.3069    5.1420 H         1 <0>         0.0000
     24 H3          1.9175   -1.0191   -1.1997 H         1 <0>         0.0000
     25 H4          1.7615   -1.0924    3.7631 H         1 <0>         0.0000
     26 H5         -4.4799    1.7912    4.5848 H         1 <0>         0.0000
     27 H6          0.7468    0.9226    4.1980 H         1 <0>         0.0000
     28 H7         -0.2842   -0.4408    4.6341 H         1 <0>         0.0000
     29 H8          3.3857   -4.2160   -1.4440 H         1 <0>         0.0000
     30 H9          4.1398   -4.6794    0.0326 H         1 <0>         0.0000
     31 H10        -1.1691    0.2259    2.1433 H         1 <0>         0.0000
     32 H11        -1.5797   -0.3311   -1.5917 H         1 <0>         0.0000
@<TRIPOS>BOND
     1    1    2 1
     2    1    5 2
     3    2   10 2
     4    3    6 ar
     5    3    8 ar
     6    4    7 ar
     7    4    9 ar
     8    5   18 1
     9    6    7 ar
    10    6   11 1
    11    7   14 1
    12    8    9 ar
    13    8   20 1
    14    9   21 1
    15   10   12 1
    16   10   18 1
    17   11   15 2
    18   11   19 1
    19   12   14 1
    20   13   20 1
    21   16   20 2
    22   17   20 2
    23    1   22 1
    24    2   23 1
    25    3   24 1
    26    4   25 1
    27    5   26 1
    28   12   27 1
    29   12   28 1
    30   13   29 1
    31   13   30 1
    32   14   31 1
    33   19   32 1
@<TRIPOS>MOLECULE
*****
   32    33     0     0     0
SMALL
NO_CHARGES

@<TRIPOS>ATOM
      1 C1         -2.6831    3.0752    5.0717 C.2       1 <0>         0.0000
      2 C2         -1.3248    2.7090    4.9163 C.2       1 <0>         0.0000
      3 C3          1.8851   -1.0363   -0.1124 C.ar      1 <0>         0.0000
      4 C4          1.7997   -1.0786    2.6757 C.ar      1 <0>         0.0000
      5 C5         -3.4209    1.9921    4.6542 C.2       1 <0>         0.0000
      6 C6          0.8066   -0.4630    0.5610 C.ar      1 <0>         0.0000
      7 C7          0.7638   -0.4841    1.9551 C.ar      1 <0>         0.0000
      8 C8          2.9210   -1.6309    0.6081 C.ar      1 <0>         0.0000
      9 C9          2.8783   -1.6520    2.0022 C.ar      1 <0>         0.0000
     10 C10        -1.3295    1.4281    4.4151 C.2       1 <0>         0.0000
     11 C11        -0.2597    0.1505   -0.2205 C.2       1 <0>         0.0000
     12 C12        -0.2376    0.4719    4.0308 C.3       1 <0>         0.0000
     13 N1          5.3017   -0.9953   -0.4082 N.pl3     1 <0>         0.0000
     14 N2         -0.3194    0.0914    2.6559 N.pl3     1 <0>         0.0000
     15 O1         -0.6026    1.3336   -0.1536 O.2       1 <0>         0.0000
     16 O2          4.8710   -3.3532    0.5407 O.2       1 <0>         0.0000
     17 O3          3.7708   -2.6745   -1.6219 O.2       1 <0>         0.0000
     18 O4         -2.6033    0.9838    4.2525 O.3       1 <0>         0.0000
     19 O5         -0.8607   -0.7347   -1.0602 O.3       1 <0>         0.0000
     20 S1          4.2498   -2.3351   -0.2914 S.o2      1 <0>         0.0000
     21 Cl1         4.1349   -2.3756    2.9403 Cl        1 <0>         0.0000
     22 H1         -3.0753    4.0116    5.4414 H         1 <0>         0.0000
     23 H2         -0.4533    3.3069    5.1420 H         1 <0>         0.0000
     24 H3          1.9175   -1.0191   -1.1997 H         1 <0>         0.0000
     25 H4          1.7615   -1.0924    3.7631 H         1 <0>         0.0000
     26 H5         -4.4799    1.7912    4.5848 H         1 <0>         0.0000
     27 H6          0.7468    0.9226    4.1980 H         1 <0>         0.0000
     28 H7         -0.2842   -0.4408    4.6341 H         1 <0>         0.0000
     29 H8          6.1638   -1.0106    0.1504 H         1 <0>         0.0000
     30 H9          5.4099   -0.5473   -1.3263 H         1 <0>         0.0000
     31 H10        -1.1691    0.2259    2.1433 H         1 <0>         0.0000
     32 H11        -1.5797   -0.3311   -1.5917 H         1 <0>         0.0000
@<TRIPOS>BOND
     1    1    2 1
     2    1    5 2
     3    2   10 2
     4    3    6 ar
     5    3    8 ar
     6    4    7 ar
     7    4    9 ar
     8    5   18 1
     9    6    7 ar
    10    6   11 1
    11    7   14 1
    12    8    9 ar
    13    8   20 1
    14    9   21 1
    15   10   12 1
    16   10   18 1
    17   11   15 2
    18   11   19 1
    19   12   14 1
    20   13   20 1
    21   16   20 2
    22   17   20 2
    23    1   22 1
    24    2   23 1
    25    3   24 1
    26    4   25 1
    27    5   26 1
    28   12   27 1
    29   12   28 1
    30   13   29 1
    31   13   30 1
    32   14   31 1
    33   19   32 1
@<TRIPOS>MOLECULE
*****
   32    33     0     0     0
SMALL
NO_CHARGES

@<TRIPOS>ATOM
      1 C1         -3.1780    2.5850    4.8854 C.2       1 <0>         0.0000
      2 C2         -2.7023    1.3453    4.3954 C.2       1 <0>         0.0000
      3 C3          1.8851   -1.0363   -0.1124 C.ar      1 <0>         0.0000
      4 C4          1.7997   -1.0786    2.6757 C.ar      1 <0>         0.0000
      5 C5         -2.0619    3.3369    5.1698 C.2       1 <0>         0.0000
      6 C6          0.8066   -0.4630    0.5610 C.ar      1 <0>         0.0000
      7 C7          0.7638   -0.4841    1.9551 C.ar      1 <0>         0.0000
      8 C8          2.9210   -1.6309    0.6081 C.ar      1 <0>         0.0000
      9 C9          2.8783   -1.6520    2.0022 C.ar      1 <0>         0.0000
     10 C10        -1.3295    1.4281    4.4151 C.2       1 <0>         0.0000
     11 C11        -0.2597    0.1505   -0.2205 C.2       1 <0>         0.0000
     12 C12        -0.2376    0.4719    4.0308 C.3       1 <0>         0.0000
     13 N1          3.6819   -3.9315   -0.5023 N.pl3     1 <0>         0.0000
     14 N2         -0.3194    0.0914    2.6559 N.pl3     1 <0>         0.0000
     15 O1         -0.6026    1.3336   -0.1536 O.2       1 <0>         0.0000
     16 O2          4.3156   -1.6812   -1.5886 O.2       1 <0>         0.0000
     17 O3          5.4206   -2.3623    0.5707 O.2       1 <0>         0.0000
     18 O4         -0.9310    2.6390    4.8858 O.3       1 <0>         0.0000
     19 O5         -0.8607   -0.7347   -1.0602 O.3       1 <0>         0.0000
     20 S1          4.2498   -2.3351   -0.2914 S.o2      1 <0>         0.0000
     21 Cl1         4.1349   -2.3756    2.9403 Cl        1 <0>         0.0000
     22 H1         -4.2056    2.8920    5.0154 H         1 <0>         0.0000
     23 H2         -3.2898    0.4987    4.0697 H         1 <0>         0.0000
     24 H3          1.9175   -1.0191   -1.1997 H         1 <0>         0.0000
     25 H4          1.7615   -1.0924    3.7631 H         1 <0>         0.0000
     26 H5         -1.9112    4.3332    5.5588 H         1 <0>         0.0000
     27 H6          0.7468    0.9226    4.1980 H         1 <0>         0.0000
     28 H7         -0.2842   -0.4408    4.6341 H         1 <0>         0.0000
     29 H8          3.3857   -4.2160   -1.4440 H         1 <0>         0.0000
     30 H9          4.1398   -4.6794    0.0326 H         1 <0>         0.0000
     31 H10        -1.1691    0.2259    2.1433 H         1 <0>         0.0000
     32 H11        -1.5797   -0.3311   -1.5917 H         1 <0>         0.0000
@<TRIPOS>BOND
     1    1    2 1
     2    1    5 2
     3    2   10 2
     4    3    6 ar
     5    3    8 ar
     6    4    7 ar
     7    4    9 ar
     8    5   18 1
     9    6    7 ar
    10    6   11 1
    11    7   14 1
    12    8    9 ar
    13    8   20 1
    14    9   21 1
    15   10   12 1
    16   10   18 1
    17   11   15 2
    18   11   19 1
    19   12   14 1
    20   13   20 1
    21   16   20 2
    22   17   20 2
    23    1   22 1
    24    2   23 1
    25    3   24 1
    26    4   25 1
    27    5   26 1
    28   12   27 1
    29   12   28 1
    30   13   29 1
    31   13   30 1
    32   14   31 1
    33   19   32 1
@<TRIPOS>MOLECULE
*****
   32    33     0     0     0
SMALL
NO_CHARGES

@<TRIPOS>ATOM
      1 C1         -3.1780    2.5850    4.8854 C.2       1 <0>         0.0000
      2 C2         -2.7023    1.3453    4.3954 C.2       1 <0>         0.0000
      3 C3          1.8851   -1.0363   -0.1124 C.ar      1 <0>         0.0000
      4 C4          1.7997   -1.0786    2.6757 C.ar      1 <0>         0.0000
      5 C5         -2.0619    3.3369    5.1698 C.2       1 <0>         0.0000
      6 C6          0.8066   -0.4630    0.5610 C.ar      1 <0>         0.0000
      7 C7          0.7638   -0.4841    1.9551 C.ar      1 <0>         0.0000
      8 C8          2.9210   -1.6309    0.6081 C.ar      1 <0>         0.0000
      9 C9          2.8783   -1.6520    2.0022 C.ar      1 <0>         0.0000
     10 C10        -1.3295    1.4281    4.4151 C.2       1 <0>         0.0000
     11 C11        -0.2597    0.1505   -0.2205 C.2       1 <0>         0.0000
     12 C12        -0.2376    0.4719    4.0308 C.3       1 <0>         0.0000
     13 N1          5.3017   -0.9953   -0.4082 N.pl3     1 <0>         0.0000
     14 N2         -0.3194    0.0914    2.6559 N.pl3     1 <0>         0.0000
     15 O1         -0.6026    1.3336   -0.1536 O.2       1 <0>         0.0000
     16 O2          4.8710   -3.3532    0.5407 O.2       1 <0>         0.0000
     17 O3          3.7708   -2.6745   -1.6219 O.2       1 <0>         0.0000
     18 O4         -0.9310    2.6390    4.8858 O.3       1 <0>         0.0000
     19 O5         -0.8607   -0.7347   -1.0602 O.3       1 <0>         0.0000
     20 S1          4.2498   -2.3351   -0.2914 S.o2      1 <0>         0.0000
     21 Cl1         4.1349   -2.3756    2.9403 Cl        1 <0>         0.0000
     22 H1         -4.2056    2.8920    5.0154 H         1 <0>         0.0000
     23 H2         -3.2898    0.4987    4.0697 H         1 <0>         0.0000
     24 H3          1.9175   -1.0191   -1.1997 H         1 <0>         0.0000
     25 H4          1.7615   -1.0924    3.7631 H         1 <0>         0.0000
     26 H5         -1.9112    4.3332    5.5588 H         1 <0>         0.0000
     27 H6          0.7468    0.9226    4.1980 H         1 <0>         0.0000
     28 H7         -0.2842   -0.4408    4.6341 H         1 <0>         0.0000
     29 H8          6.1638   -1.0106    0.1504 H         1 <0>         0.0000
     30 H9          5.4099   -0.5473   -1.3263 H         1 <0>         0.0000
     31 H10        -1.1691    0.2259    2.1433 H         1 <0>         0.0000
     32 H11        -1.5797   -0.3311   -1.5917 H         1 <0>         0.0000
@<TRIPOS>BOND
     1    1    2 1
     2    1    5 2
     3    2   10 2
     4    3    6 ar
     5    3    8 ar
     6    4    7 ar
     7    4    9 ar
     8    5   18 1
     9    6    7 ar
    10    6   11 1
    11    7   14 1
    12    8    9 ar
    13    8   20 1
    14    9   21 1
    15   10   12 1
    16   10   18 1
    17   11   15 2
    18   11   19 1
    19   12   14 1
    20   13   20 1
    21   16   20 2
    22   17   20 2
    23    1   22 1
    24    2   23 1
    25    3   24 1
    26    4   25 1
    27    5   26 1
    28   12   27 1
    29   12   28 1
    30   13   29 1
    31   13   30 1
    32   14   31 1
    33   19   32 1
@<TRIPOS>MOLECULE
*****
   32    33     0     0     0
SMALL
NO_CHARGES

@<TRIPOS>ATOM
      1 C1         -2.6831    3.0752    5.0717 C.2       1 <0>         0.0000
      2 C2         -1.3248    2.7090    4.9163 C.2       1 <0>         0.0000
      3 C3          1.8851   -1.0363   -0.1124 C.ar      1 <0>         0.0000
      4 C4          1.7997   -1.0786    2.6757 C.ar      1 <0>         0.0000
      5 C5         -3.4209    1.9921    4.6542 C.2       1 <0>         0.0000
      6 C6          0.8066   -0.4630    0.5610 C.ar      1 <0>         0.0000
      7 C7          0.7638   -0.4841    1.9551 C.ar      1 <0>         0.0000
      8 C8          2.9210   -1.6309    0.6081 C.ar      1 <0>         0.0000
      9 C9          2.8783   -1.6520    2.0022 C.ar      1 <0>         0.0000
     10 C10        -1.3295    1.4281    4.4151 C.2       1 <0>         0.0000
     11 C11        -0.2597    0.1505   -0.2205 C.2       1 <0>         0.0000
     12 C12        -0.2376    0.4719    4.0308 C.3       1 <0>         0.0000
     13 N1          3.7571   -2.0119   -1.8940 N.pl3     1 <0>         0.0000
     14 N2         -0.3194    0.0914    2.6559 N.pl3     1 <0>         0.0000
     15 O1         -0.6026    1.3336   -0.1536 O.2       1 <0>         0.0000
     16 O2          5.4503   -1.5673   -0.0016 O.2       1 <0>         0.0000
     17 O3          4.2353   -3.7732   -0.0757 O.2       1 <0>         0.0000
     18 O4         -2.6033    0.9838    4.2525 O.3       1 <0>         0.0000
     19 O5         -0.8607   -0.7347   -1.0602 O.3       1 <0>         0.0000
     20 S1          4.2498   -2.3351   -0.2914 S.o2      1 <0>         0.0000
     21 Cl1         4.1349   -2.3756    2.9403 Cl        1 <0>         0.0000
     22 H1         -3.0753    4.0116    5.4414 H         1 <0>         0.0000
     23 H2         -0.4533    3.3069    5.1420 H         1 <0>         0.0000
     24 H3          1.9175   -1.0191   -1.1997 H         1 <0>         0.0000
     25 H4          1.7615   -1.0924    3.7631 H         1 <0>         0.0000
     26 H5         -4.4799    1.7912    4.5848 H         1 <0>         0.0000
     27 H6          0.7468    0.9226    4.1980 H         1 <0>         0.0000
     28 H7         -0.2842   -0.4408    4.6341 H         1 <0>         0.0000
     29 H8          4.2724   -1.2958   -2.4203 H         1 <0>         0.0000
     30 H9          3.4412   -2.8026   -2.4687 H         1 <0>         0.0000
     31 H10        -1.1691    0.2259    2.1433 H         1 <0>         0.0000
     32 H11        -1.5797   -0.3311   -1.5917 H         1 <0>         0.0000
@<TRIPOS>BOND
     1    1    2 1
     2    1    5 2
     3    2   10 2
     4    3    6 ar
     5    3    8 ar
     6    4    7 ar
     7    4    9 ar
     8    5   18 1
     9    6    7 ar
    10    6   11 1
    11    7   14 1
    12    8    9 ar
    13    8   20 1
    14    9   21 1
    15   10   12 1
    16   10   18 1
    17   11   15 2
    18   11   19 1
    19   12   14 1
    20   13   20 1
    21   16   20 2
    22   17   20 2
    23    1   22 1
    24    2   23 1
    25    3   24 1
    26    4   25 1
    27    5   26 1
    28   12   27 1
    29   12   28 1
    30   13   29 1
    31   13   30 1
    32   14   31 1
    33   19   32 1
@<TRIPOS>MOLECULE
*****
   32    33     0     0     0
SMALL
NO_CHARGES

@<TRIPOS>ATOM
      1 C1         -3.1780    2.5850    4.8854 C.2       1 <0>         0.0000
      2 C2         -2.7023    1.3453    4.3954 C.2       1 <0>         0.0000
      3 C3          1.8851   -1.0363   -0.1124 C.ar      1 <0>         0.0000
      4 C4          1.7997   -1.0786    2.6757 C.ar      1 <0>         0.0000
      5 C5         -2.0619    3.3369    5.1698 C.2       1 <0>         0.0000
      6 C6          0.8066   -0.4630    0.5610 C.ar      1 <0>         0.0000
      7 C7          0.7638   -0.4841    1.9551 C.ar      1 <0>         0.0000
      8 C8          2.9210   -1.6309    0.6081 C.ar      1 <0>         0.0000
      9 C9          2.8783   -1.6520    2.0022 C.ar      1 <0>         0.0000
     10 C10        -1.3295    1.4281    4.4151 C.2       1 <0>         0.0000
     11 C11        -0.2597    0.1505   -0.2205 C.2       1 <0>         0.0000
     12 C12        -0.2376    0.4719    4.0308 C.3       1 <0>         0.0000
     13 N1          3.7571   -2.0119   -1.8940 N.pl3     1 <0>         0.0000
     14 N2         -0.3194    0.0914    2.6559 N.pl3     1 <0>         0.0000
     15 O1         -0.6026    1.3336   -0.1536 O.2       1 <0>         0.0000
     16 O2          5.4503   -1.5673   -0.0016 O.2       1 <0>         0.0000
     17 O3          4.2353   -3.7732   -0.0757 O.2       1 <0>         0.0000
     18 O4         -0.9310    2.6390    4.8858 O.3       1 <0>         0.0000
     19 O5         -0.8607   -0.7347   -1.0602 O.3       1 <0>         0.0000
     20 S1          4.2498   -2.3351   -0.2914 S.o2      1 <0>         0.0000
     21 Cl1         4.1349   -2.3756    2.9403 Cl        1 <0>         0.0000
     22 H1         -4.2056    2.8920    5.0154 H         1 <0>         0.0000
     23 H2         -3.2898    0.4987    4.0697 H         1 <0>         0.0000
     24 H3          1.9175   -1.0191   -1.1997 H         1 <0>         0.0000
     25 H4          1.7615   -1.0924    3.7631 H         1 <0>         0.0000
     26 H5         -1.9112    4.3332    5.5588 H         1 <0>         0.0000
     27 H6          0.7468    0.9226    4.1980 H         1 <0>         0.0000
     28 H7         -0.2842   -0.4408    4.6341 H         1 <0>         0.0000
     29 H8          4.2724   -1.2958   -2.4203 H         1 <0>         0.0000
     30 H9          3.4412   -2.8026   -2.4687 H         1 <0>         0.0000
     31 H10        -1.1691    0.2259    2.1433 H         1 <0>         0.0000
     32 H11        -1.5797   -0.3311   -1.5917 H         1 <0>         0.0000
@<TRIPOS>BOND
     1    1    2 1
     2    1    5 2
     3    2   10 2
     4    3    6 ar
     5    3    8 ar
     6    4    7 ar
     7    4    9 ar
     8    5   18 1
     9    6    7 ar
    10    6   11 1
    11    7   14 1
    12    8    9 ar
    13    8   20 1
    14    9   21 1
    15   10   12 1
    16   10   18 1
    17   11   15 2
    18   11   19 1
    19   12   14 1
    20   13   20 1
    21   16   20 2
    22   17   20 2
    23    1   22 1
    24    2   23 1
    25    3   24 1
    26    4   25 1
    27    5   26 1
    28   12   27 1
    29   12   28 1
    30   13   29 1
    31   13   30 1
    32   14   31 1
    33   19   32 1
@<TRIPOS>MOLECULE
*****
   32    33     0     0     0
SMALL
NO_CHARGES

@<TRIPOS>ATOM
      1 C1         -2.9339    2.9612    4.6427 C.2       1 <0>         0.0000
      2 C2         -2.0222    2.3928    3.7213 C.2       1 <0>         0.0000
      3 C3          1.8851   -1.0363   -0.1124 C.ar      1 <0>         0.0000
      4 C4          1.7997   -1.0786    2.6757 C.ar      1 <0>         0.0000
      5 C5         -2.7335    2.3031    5.8338 C.2       1 <0>         0.0000
      6 C6          0.8066   -0.4630    0.5610 C.ar      1 <0>         0.0000
      7 C7          0.7638   -0.4841    1.9551 C.ar      1 <0>         0.0000
      8 C8          2.9210   -1.6309    0.6081 C.ar      1 <0>         0.0000
      9 C9          2.8783   -1.6520    2.0022 C.ar      1 <0>         0.0000
     10 C10        -1.3295    1.4281    4.4151 C.2       1 <0>         0.0000
     11 C11        -0.2597    0.1505   -0.2205 C.2       1 <0>         0.0000
     12 C12        -0.2376    0.4719    4.0308 C.3       1 <0>         0.0000
     13 N1          3.6819   -3.9315   -0.5023 N.pl3     1 <0>         0.0000
     14 N2         -0.3194    0.0914    2.6559 N.pl3     1 <0>         0.0000
     15 O1         -1.4445   -0.1926   -0.2028 O.2       1 <0>         0.0000
     16 O2          4.3156   -1.6812   -1.5886 O.2       1 <0>         0.0000
     17 O3          5.4206   -2.3623    0.5707 O.2       1 <0>         0.0000
     18 O4         -1.7570    1.3671    5.7035 O.3       1 <0>         0.0000
     19 O5          0.1902    1.1727   -0.9968 O.3       1 <0>         0.0000
     20 S1          4.2498   -2.3351   -0.2914 S.o2      1 <0>         0.0000
     21 Cl1         4.1349   -2.3756    2.9403 Cl        1 <0>         0.0000
     22 H1         -3.6481    3.7513    4.4613 H         1 <0>         0.0000
     23 H2         -1.8895    2.6557    2.6815 H         1 <0>         0.0000
     24 H3          1.9175   -1.0191   -1.1997 H         1 <0>         0.0000
     25 H4          1.7615   -1.0924    3.7631 H         1 <0>         0.0000
     26 H5         -3.1804    2.3793    6.8141 H         1 <0>         0.0000
     27 H6          0.7468    0.9226    4.1980 H         1 <0>         0.0000
     28 H7         -0.2842   -0.4408    4.6341 H         1 <0>         0.0000
     29 H8          3.3857   -4.2160   -1.4440 H         1 <0>         0.0000
     30 H9          4.1398   -4.6794    0.0326 H         1 <0>         0.0000
     31 H10        -1.1691    0.2259    2.1433 H         1 <0>         0.0000
     32 H11        -0.5205    1.5931   -1.5264 H         1 <0>         0.0000
@<TRIPOS>BOND
     1    1    2 1
     2    1    5 2
     3    2   10 2
     4    3    6 ar
     5    3    8 ar
     6    4    7 ar
     7    4    9 ar
     8    5   18 1
     9    6    7 ar
    10    6   11 1
    11    7   14 1
    12    8    9 ar
    13    8   20 1
    14    9   21 1
    15   10   12 1
    16   10   18 1
    17   11   15 2
    18   11   19 1
    19   12   14 1
    20   13   20 1
    21   16   20 2
    22   17   20 2
    23    1   22 1
    24    2   23 1
    25    3   24 1
    26    4   25 1
    27    5   26 1
    28   12   27 1
    29   12   28 1
    30   13   29 1
    31   13   30 1
    32   14   31 1
    33   19   32 1
@<TRIPOS>MOLECULE
*****
   32    33     0     0     0
SMALL
NO_CHARGES

@<TRIPOS>ATOM
      1 C1          2.1330    3.3196    4.3660 C.2       1 <0>         0.0000
      2 C2          0.9521    2.8146    3.7713 C.2       1 <0>         0.0000
      3 C3          1.8851   -1.0363   -0.1124 C.ar      1 <0>         0.0000
      4 C4          1.7997   -1.0786    2.6757 C.ar      1 <0>         0.0000
      5 C5          2.6132    2.3156    5.1742 C.2       1 <0>         0.0000
      6 C6          0.8066   -0.4630    0.5610 C.ar      1 <0>         0.0000
      7 C7          0.7638   -0.4841    1.9551 C.ar      1 <0>         0.0000
      8 C8          2.9210   -1.6309    0.6081 C.ar      1 <0>         0.0000
      9 C9          2.8783   -1.6520    2.0022 C.ar      1 <0>         0.0000
     10 C10         0.7950    1.5378    4.2583 C.2       1 <0>         0.0000
     11 C11        -0.2597    0.1505   -0.2205 C.2       1 <0>         0.0000
     12 C12        -0.2376    0.4719    4.0308 C.3       1 <0>         0.0000
     13 N1          3.6819   -3.9315   -0.5023 N.pl3     1 <0>         0.0000
     14 N2         -0.3194    0.0914    2.6559 N.pl3     1 <0>         0.0000
     15 O1         -0.9578    1.0989    0.1469 O.2       1 <0>         0.0000
     16 O2          4.3156   -1.6812   -1.5886 O.2       1 <0>         0.0000
     17 O3          5.4206   -2.3623    0.5707 O.2       1 <0>         0.0000
     18 O4          1.8035    1.2260    5.1141 O.3       1 <0>         0.0000
     19 O5         -0.4169   -0.4409   -1.4352 O.3       1 <0>         0.0000
     20 S1          4.2498   -2.3351   -0.2914 S.o2      1 <0>         0.0000
     21 Cl1         4.1349   -2.3756    2.9403 Cl        1 <0>         0.0000
     22 H1          2.5781    4.2937    4.2238 H         1 <0>         0.0000
     23 H2          0.2988    3.3210    3.0750 H         1 <0>         0.0000
     24 H3          1.9175   -1.0191   -1.1997 H         1 <0>         0.0000
     25 H4          1.7615   -1.0924    3.7631 H         1 <0>         0.0000
     26 H5          3.4726    2.2243    5.8220 H         1 <0>         0.0000
     27 H6         -0.0027   -0.4243    4.6154 H         1 <0>         0.0000
     28 H7         -1.2301    0.8132    4.3434 H         1 <0>         0.0000
     29 H8          3.3857   -4.2160   -1.4440 H         1 <0>         0.0000
     30 H9          4.1398   -4.6794    0.0326 H         1 <0>         0.0000
     31 H10        -1.1691    0.2259    2.1433 H         1 <0>         0.0000
     32 H11        -1.1320   -0.0344   -1.9696 H         1 <0>         0.0000
@<TRIPOS>BOND
     1    1    2 1
     2    1    5 2
     3    2   10 2
     4    3    6 ar
     5    3    8 ar
     6    4    7 ar
     7    4    9 ar
     8    5   18 1
     9    6    7 ar
    10    6   11 1
    11    7   14 1
    12    8    9 ar
    13    8   20 1
    14    9   21 1
    15   10   12 1
    16   10   18 1
    17   11   15 2
    18   11   19 1
    19   12   14 1
    20   13   20 1
    21   16   20 2
    22   17   20 2
    23    1   22 1
    24    2   23 1
    25    3   24 1
    26    4   25 1
    27    5   26 1
    28   12   27 1
    29   12   28 1
    30   13   29 1
    31   13   30 1
    32   14   31 1
    33   19   32 1
@<TRIPOS>MOLECULE
*****
   32    33     0     0     0
SMALL
NO_CHARGES

@<TRIPOS>ATOM
      1 C1         -2.9339    2.9612    4.6427 C.2       1 <0>         0.0000
      2 C2         -2.0222    2.3928    3.7213 C.2       1 <0>         0.0000
      3 C3          1.8851   -1.0363   -0.1124 C.ar      1 <0>         0.0000
      4 C4          1.7997   -1.0786    2.6757 C.ar      1 <0>         0.0000
      5 C5         -2.7335    2.3031    5.8338 C.2       1 <0>         0.0000
      6 C6          0.8066   -0.4630    0.5610 C.ar      1 <0>         0.0000
      7 C7          0.7638   -0.4841    1.9551 C.ar      1 <0>         0.0000
      8 C8          2.9210   -1.6309    0.6081 C.ar      1 <0>         0.0000
      9 C9          2.8783   -1.6520    2.0022 C.ar      1 <0>         0.0000
     10 C10        -1.3295    1.4281    4.4151 C.2       1 <0>         0.0000
     11 C11        -0.2597    0.1505   -0.2205 C.2       1 <0>         0.0000
     12 C12        -0.2376    0.4719    4.0308 C.3       1 <0>         0.0000
     13 N1          5.3017   -0.9953   -0.4082 N.pl3     1 <0>         0.0000
     14 N2         -0.3194    0.0914    2.6559 N.pl3     1 <0>         0.0000
     15 O1         -1.4445   -0.1926   -0.2028 O.2       1 <0>         0.0000
     16 O2          4.8710   -3.3532    0.5407 O.2       1 <0>         0.0000
     17 O3          3.7708   -2.6745   -1.6219 O.2       1 <0>         0.0000
     18 O4         -1.7570    1.3671    5.7035 O.3       1 <0>         0.0000
     19 O5          0.1902    1.1727   -0.9968 O.3       1 <0>         0.0000
     20 S1          4.2498   -2.3351   -0.2914 S.o2      1 <0>         0.0000
     21 Cl1         4.1349   -2.3756    2.9403 Cl        1 <0>         0.0000
     22 H1         -3.6481    3.7513    4.4613 H         1 <0>         0.0000
     23 H2         -1.8895    2.6557    2.6815 H         1 <0>         0.0000
     24 H3          1.9175   -1.0191   -1.1997 H         1 <0>         0.0000
     25 H4          1.7615   -1.0924    3.7631 H         1 <0>         0.0000
     26 H5         -3.1804    2.3793    6.8141 H         1 <0>         0.0000
     27 H6          0.7468    0.9226    4.1980 H         1 <0>         0.0000
     28 H7         -0.2842   -0.4408    4.6341 H         1 <0>         0.0000
     29 H8          6.1638   -1.0106    0.1504 H         1 <0>         0.0000
     30 H9          5.4099   -0.5473   -1.3263 H         1 <0>         0.0000
     31 H10        -1.1691    0.2259    2.1433 H         1 <0>         0.0000
     32 H11        -0.5205    1.5931   -1.5264 H         1 <0>         0.0000
@<TRIPOS>BOND
     1    1    2 1
     2    1    5 2
     3    2   10 2
     4    3    6 ar
     5    3    8 ar
     6    4    7 ar
     7    4    9 ar
     8    5   18 1
     9    6    7 ar
    10    6   11 1
    11    7   14 1
    12    8    9 ar
    13    8   20 1
    14    9   21 1
    15   10   12 1
    16   10   18 1
    17   11   15 2
    18   11   19 1
    19   12   14 1
    20   13   20 1
    21   16   20 2
    22   17   20 2
    23    1   22 1
    24    2   23 1
    25    3   24 1
    26    4   25 1
    27    5   26 1
    28   12   27 1
    29   12   28 1
    30   13   29 1
    31   13   30 1
    32   14   31 1
    33   19   32 1
@<TRIPOS>MOLECULE
*****
   32    33     0     0     0
SMALL
NO_CHARGES

@<TRIPOS>ATOM
      1 C1          2.1330    3.3196    4.3660 C.2       1 <0>         0.0000
      2 C2          0.9521    2.8146    3.7713 C.2       1 <0>         0.0000
      3 C3          1.8851   -1.0363   -0.1124 C.ar      1 <0>         0.0000
      4 C4          1.7997   -1.0786    2.6757 C.ar      1 <0>         0.0000
      5 C5          2.6132    2.3156    5.1742 C.2       1 <0>         0.0000
      6 C6          0.8066   -0.4630    0.5610 C.ar      1 <0>         0.0000
      7 C7          0.7638   -0.4841    1.9551 C.ar      1 <0>         0.0000
      8 C8          2.9210   -1.6309    0.6081 C.ar      1 <0>         0.0000
      9 C9          2.8783   -1.6520    2.0022 C.ar      1 <0>         0.0000
     10 C10         0.7950    1.5378    4.2583 C.2       1 <0>         0.0000
     11 C11        -0.2597    0.1505   -0.2205 C.2       1 <0>         0.0000
     12 C12        -0.2376    0.4719    4.0308 C.3       1 <0>         0.0000
     13 N1          5.3017   -0.9953   -0.4082 N.pl3     1 <0>         0.0000
     14 N2         -0.3194    0.0914    2.6559 N.pl3     1 <0>         0.0000
     15 O1         -0.9578    1.0989    0.1469 O.2       1 <0>         0.0000
     16 O2          4.8710   -3.3532    0.5407 O.2       1 <0>         0.0000
     17 O3          3.7708   -2.6745   -1.6219 O.2       1 <0>         0.0000
     18 O4          1.8035    1.2260    5.1141 O.3       1 <0>         0.0000
     19 O5         -0.4169   -0.4409   -1.4352 O.3       1 <0>         0.0000
     20 S1          4.2498   -2.3351   -0.2914 S.o2      1 <0>         0.0000
     21 Cl1         4.1349   -2.3756    2.9403 Cl        1 <0>         0.0000
     22 H1          2.5781    4.2937    4.2238 H         1 <0>         0.0000
     23 H2          0.2988    3.3210    3.0750 H         1 <0>         0.0000
     24 H3          1.9175   -1.0191   -1.1997 H         1 <0>         0.0000
     25 H4          1.7615   -1.0924    3.7631 H         1 <0>         0.0000
     26 H5          3.4726    2.2243    5.8220 H         1 <0>         0.0000
     27 H6         -0.0027   -0.4243    4.6154 H         1 <0>         0.0000
     28 H7         -1.2301    0.8132    4.3434 H         1 <0>         0.0000
     29 H8          6.1638   -1.0106    0.1504 H         1 <0>         0.0000
     30 H9          5.4099   -0.5473   -1.3263 H         1 <0>         0.0000
     31 H10        -1.1691    0.2259    2.1433 H         1 <0>         0.0000
     32 H11        -1.1320   -0.0344   -1.9696 H         1 <0>         0.0000
@<TRIPOS>BOND
     1    1    2 1
     2    1    5 2
     3    2   10 2
     4    3    6 ar
     5    3    8 ar
     6    4    7 ar
     7    4    9 ar
     8    5   18 1
     9    6    7 ar
    10    6   11 1
    11    7   14 1
    12    8    9 ar
    13    8   20 1
    14    9   21 1
    15   10   12 1
    16   10   18 1
    17   11   15 2
    18   11   19 1
    19   12   14 1
    20   13   20 1
    21   16   20 2
    22   17   20 2
    23    1   22 1
    24    2   23 1
    25    3   24 1
    26    4   25 1
    27    5   26 1
    28   12   27 1
    29   12   28 1
    30   13   29 1
    31   13   30 1
    32   14   31 1
    33   19   32 1
@<TRIPOS>MOLECULE
*****
   32    33     0     0     0
SMALL
NO_CHARGES

@<TRIPOS>ATOM
      1 C1          2.4854    2.8818    4.8177 C.2       1 <0>         0.0000
      2 C2          1.9319    1.5966    5.0303 C.2       1 <0>         0.0000
      3 C3          1.8851   -1.0363   -0.1124 C.ar      1 <0>         0.0000
      4 C4          1.7997   -1.0786    2.6757 C.ar      1 <0>         0.0000
      5 C5          1.6475    3.5165    3.9306 C.2       1 <0>         0.0000
      6 C6          0.8066   -0.4630    0.5610 C.ar      1 <0>         0.0000
      7 C7          0.7638   -0.4841    1.9551 C.ar      1 <0>         0.0000
      8 C8          2.9210   -1.6309    0.6081 C.ar      1 <0>         0.0000
      9 C9          2.8783   -1.6520    2.0022 C.ar      1 <0>         0.0000
     10 C10         0.7950    1.5378    4.2583 C.2       1 <0>         0.0000
     11 C11        -0.2597    0.1505   -0.2205 C.2       1 <0>         0.0000
     12 C12        -0.2376    0.4719    4.0308 C.3       1 <0>         0.0000
     13 N1          3.6819   -3.9315   -0.5023 N.pl3     1 <0>         0.0000
     14 N2         -0.3194    0.0914    2.6559 N.pl3     1 <0>         0.0000
     15 O1         -0.9578    1.0989    0.1469 O.2       1 <0>         0.0000
     16 O2          4.3156   -1.6812   -1.5886 O.2       1 <0>         0.0000
     17 O3          5.4206   -2.3623    0.5707 O.2       1 <0>         0.0000
     18 O4          0.6145    2.7042    3.5848 O.3       1 <0>         0.0000
     19 O5         -0.4169   -0.4409   -1.4352 O.3       1 <0>         0.0000
     20 S1          4.2498   -2.3351   -0.2914 S.o2      1 <0>         0.0000
     21 Cl1         4.1349   -2.3756    2.9403 Cl        1 <0>         0.0000
     22 H1          3.3830    3.2937    5.2557 H         1 <0>         0.0000
     23 H2          2.3166    0.8129    5.6674 H         1 <0>         0.0000
     24 H3          1.9175   -1.0191   -1.1997 H         1 <0>         0.0000
     25 H4          1.7615   -1.0924    3.7631 H         1 <0>         0.0000
     26 H5          1.6471    4.4945    3.4720 H         1 <0>         0.0000
     27 H6         -0.0027   -0.4243    4.6154 H         1 <0>         0.0000
     28 H7         -1.2301    0.8132    4.3434 H         1 <0>         0.0000
     29 H8          3.3857   -4.2160   -1.4440 H         1 <0>         0.0000
     30 H9          4.1398   -4.6794    0.0326 H         1 <0>         0.0000
     31 H10        -1.1691    0.2259    2.1433 H         1 <0>         0.0000
     32 H11        -1.1320   -0.0344   -1.9696 H         1 <0>         0.0000
@<TRIPOS>BOND
     1    1    2 1
     2    1    5 2
     3    2   10 2
     4    3    6 ar
     5    3    8 ar
     6    4    7 ar
     7    4    9 ar
     8    5   18 1
     9    6    7 ar
    10    6   11 1
    11    7   14 1
    12    8    9 ar
    13    8   20 1
    14    9   21 1
    15   10   12 1
    16   10   18 1
    17   11   15 2
    18   11   19 1
    19   12   14 1
    20   13   20 1
    21   16   20 2
    22   17   20 2
    23    1   22 1
    24    2   23 1
    25    3   24 1
    26    4   25 1
    27    5   26 1
    28   12   27 1
    29   12   28 1
    30   13   29 1
    31   13   30 1
    32   14   31 1
    33   19   32 1
@<TRIPOS>MOLECULE
*****
   32    33     0     0     0
SMALL
NO_CHARGES

@<TRIPOS>ATOM
      1 C1          2.4854    2.8818    4.8177 C.2       1 <0>         0.0000
      2 C2          1.9319    1.5966    5.0303 C.2       1 <0>         0.0000
      3 C3          1.8851   -1.0363   -0.1124 C.ar      1 <0>         0.0000
      4 C4          1.7997   -1.0786    2.6757 C.ar      1 <0>         0.0000
      5 C5          1.6475    3.5165    3.9306 C.2       1 <0>         0.0000
      6 C6          0.8066   -0.4630    0.5610 C.ar      1 <0>         0.0000
      7 C7          0.7638   -0.4841    1.9551 C.ar      1 <0>         0.0000
      8 C8          2.9210   -1.6309    0.6081 C.ar      1 <0>         0.0000
      9 C9          2.8783   -1.6520    2.0022 C.ar      1 <0>         0.0000
     10 C10         0.7950    1.5378    4.2583 C.2       1 <0>         0.0000
     11 C11        -0.2597    0.1505   -0.2205 C.2       1 <0>         0.0000
     12 C12        -0.2376    0.4719    4.0308 C.3       1 <0>         0.0000
     13 N1          5.3017   -0.9953   -0.4082 N.pl3     1 <0>         0.0000
     14 N2         -0.3194    0.0914    2.6559 N.pl3     1 <0>         0.0000
     15 O1         -0.9578    1.0989    0.1469 O.2       1 <0>         0.0000
     16 O2          4.8710   -3.3532    0.5407 O.2       1 <0>         0.0000
     17 O3          3.7708   -2.6745   -1.6219 O.2       1 <0>         0.0000
     18 O4          0.6145    2.7042    3.5848 O.3       1 <0>         0.0000
     19 O5         -0.4169   -0.4409   -1.4352 O.3       1 <0>         0.0000
     20 S1          4.2498   -2.3351   -0.2914 S.o2      1 <0>         0.0000
     21 Cl1         4.1349   -2.3756    2.9403 Cl        1 <0>         0.0000
     22 H1          3.3830    3.2937    5.2557 H         1 <0>         0.0000
     23 H2          2.3166    0.8129    5.6674 H         1 <0>         0.0000
     24 H3          1.9175   -1.0191   -1.1997 H         1 <0>         0.0000
     25 H4          1.7615   -1.0924    3.7631 H         1 <0>         0.0000
     26 H5          1.6471    4.4945    3.4720 H         1 <0>         0.0000
     27 H6         -0.0027   -0.4243    4.6154 H         1 <0>         0.0000
     28 H7         -1.2301    0.8132    4.3434 H         1 <0>         0.0000
     29 H8          6.1638   -1.0106    0.1504 H         1 <0>         0.0000
     30 H9          5.4099   -0.5473   -1.3263 H         1 <0>         0.0000
     31 H10        -1.1691    0.2259    2.1433 H         1 <0>         0.0000
     32 H11        -1.1320   -0.0344   -1.9696 H         1 <0>         0.0000
@<TRIPOS>BOND
     1    1    2 1
     2    1    5 2
     3    2   10 2
     4    3    6 ar
     5    3    8 ar
     6    4    7 ar
     7    4    9 ar
     8    5   18 1
     9    6    7 ar
    10    6   11 1
    11    7   14 1
    12    8    9 ar
    13    8   20 1
    14    9   21 1
    15   10   12 1
    16   10   18 1
    17   11   15 2
    18   11   19 1
    19   12   14 1
    20   13   20 1
    21   16   20 2
    22   17   20 2
    23    1   22 1
    24    2   23 1
    25    3   24 1
    26    4   25 1
    27    5   26 1
    28   12   27 1
    29   12   28 1
    30   13   29 1
    31   13   30 1
    32   14   31 1
    33   19   32 1
@<TRIPOS>MOLECULE
*****
   32    33     0     0     0
SMALL
NO_CHARGES

@<TRIPOS>ATOM
      1 C1         -4.2119    0.1945    4.9284 C.2       1 <0>         0.0000
      2 C2         -2.8666    0.5702    5.1568 C.2       1 <0>         0.0000
      3 C3          1.8851   -1.0363   -0.1124 C.ar      1 <0>         0.0000
      4 C4          1.7997   -1.0786    2.6757 C.ar      1 <0>         0.0000
      5 C5         -4.1807   -0.7469    3.9260 C.2       1 <0>         0.0000
      6 C6          0.8066   -0.4630    0.5610 C.ar      1 <0>         0.0000
      7 C7          0.7638   -0.4841    1.9551 C.ar      1 <0>         0.0000
      8 C8          2.9210   -1.6309    0.6081 C.ar      1 <0>         0.0000
      9 C9          2.8783   -1.6520    2.0022 C.ar      1 <0>         0.0000
     10 C10        -2.1092   -0.1686    4.2779 C.2       1 <0>         0.0000
     11 C11        -0.2597    0.1505   -0.2205 C.2       1 <0>         0.0000
     12 C12        -0.6343   -0.2470    4.0080 C.3       1 <0>         0.0000
     13 N1          3.6819   -3.9315   -0.5023 N.pl3     1 <0>         0.0000
     14 N2         -0.3194    0.0914    2.6559 N.pl3     1 <0>         0.0000
     15 O1         -0.9578    1.0989    0.1469 O.2       1 <0>         0.0000
     16 O2          4.3156   -1.6812   -1.5886 O.2       1 <0>         0.0000
     17 O3          5.4206   -2.3623    0.5707 O.2       1 <0>         0.0000
     18 O4         -2.9026   -0.9740    3.5240 O.3       1 <0>         0.0000
     19 O5         -0.4169   -0.4409   -1.4352 O.3       1 <0>         0.0000
     20 S1          4.2498   -2.3351   -0.2914 S.o2      1 <0>         0.0000
     21 Cl1         4.1349   -2.3756    2.9403 Cl        1 <0>         0.0000
     22 H1         -5.0940    0.5639    5.4311 H         1 <0>         0.0000
     23 H2         -2.4983    1.2905    5.8735 H         1 <0>         0.0000
     24 H3          1.9175   -1.0191   -1.1997 H         1 <0>         0.0000
     25 H4          1.7615   -1.0924    3.7631 H         1 <0>         0.0000
     26 H5         -4.9405   -1.3194    3.4145 H         1 <0>         0.0000
     27 H6         -0.0849    0.4372    4.6637 H         1 <0>         0.0000
     28 H7         -0.2531   -1.2559    4.1981 H         1 <0>         0.0000
     29 H8          3.3857   -4.2160   -1.4440 H         1 <0>         0.0000
     30 H9          4.1398   -4.6794    0.0326 H         1 <0>         0.0000
     31 H10        -0.8743    0.7612    2.1595 H         1 <0>         0.0000
     32 H11        -1.1320   -0.0344   -1.9696 H         1 <0>         0.0000
@<TRIPOS>BOND
     1    1    2 1
     2    1    5 2
     3    2   10 2
     4    3    6 ar
     5    3    8 ar
     6    4    7 ar
     7    4    9 ar
     8    5   18 1
     9    6    7 ar
    10    6   11 1
    11    7   14 1
    12    8    9 ar
    13    8   20 1
    14    9   21 1
    15   10   12 1
    16   10   18 1
    17   11   15 2
    18   11   19 1
    19   12   14 1
    20   13   20 1
    21   16   20 2
    22   17   20 2
    23    1   22 1
    24    2   23 1
    25    3   24 1
    26    4   25 1
    27    5   26 1
    28   12   27 1
    29   12   28 1
    30   13   29 1
    31   13   30 1
    32   14   31 1
    33   19   32 1
@<TRIPOS>MOLECULE
*****
   32    33     0     0     0
SMALL
NO_CHARGES

@<TRIPOS>ATOM
      1 C1         -4.3315   -0.3016    4.4189 C.2       1 <0>         0.0000
      2 C2         -3.1998   -0.8091    3.7372 C.2       1 <0>         0.0000
      3 C3          1.8851   -1.0363   -0.1124 C.ar      1 <0>         0.0000
      4 C4          1.7997   -1.0786    2.6757 C.ar      1 <0>         0.0000
      5 C5         -3.8518    0.6125    5.3278 C.2       1 <0>         0.0000
      6 C6          0.8066   -0.4630    0.5610 C.ar      1 <0>         0.0000
      7 C7          0.7638   -0.4841    1.9551 C.ar      1 <0>         0.0000
      8 C8          2.9210   -1.6309    0.6081 C.ar      1 <0>         0.0000
      9 C9          2.8783   -1.6520    2.0022 C.ar      1 <0>         0.0000
     10 C10        -2.1092   -0.1686    4.2779 C.2       1 <0>         0.0000
     11 C11        -0.2597    0.1505   -0.2205 C.2       1 <0>         0.0000
     12 C12        -0.6343   -0.2470    4.0080 C.3       1 <0>         0.0000
     13 N1          3.6819   -3.9315   -0.5023 N.pl3     1 <0>         0.0000
     14 N2         -0.3194    0.0914    2.6559 N.pl3     1 <0>         0.0000
     15 O1         -0.9578    1.0989    0.1469 O.2       1 <0>         0.0000
     16 O2          4.3156   -1.6812   -1.5886 O.2       1 <0>         0.0000
     17 O3          5.4206   -2.3623    0.5707 O.2       1 <0>         0.0000
     18 O4         -2.4981    0.6997    5.2482 O.3       1 <0>         0.0000
     19 O5         -0.4169   -0.4409   -1.4352 O.3       1 <0>         0.0000
     20 S1          4.2498   -2.3351   -0.2914 S.o2      1 <0>         0.0000
     21 Cl1         4.1349   -2.3756    2.9403 Cl        1 <0>         0.0000
     22 H1         -5.3672   -0.5690    4.2672 H         1 <0>         0.0000
     23 H2         -3.1844   -1.5497    2.9503 H         1 <0>         0.0000
     24 H3          1.9175   -1.0191   -1.1997 H         1 <0>         0.0000
     25 H4          1.7615   -1.0924    3.7631 H         1 <0>         0.0000
     26 H5         -4.3189    1.2504    6.0638 H         1 <0>         0.0000
     27 H6         -0.0849    0.4372    4.6637 H         1 <0>         0.0000
     28 H7         -0.2531   -1.2559    4.1981 H         1 <0>         0.0000
     29 H8          3.3857   -4.2160   -1.4440 H         1 <0>         0.0000
     30 H9          4.1398   -4.6794    0.0326 H         1 <0>         0.0000
     31 H10        -0.8743    0.7612    2.1595 H         1 <0>         0.0000
     32 H11        -1.1320   -0.0344   -1.9696 H         1 <0>         0.0000
@<TRIPOS>BOND
     1    1    2 1
     2    1    5 2
     3    2   10 2
     4    3    6 ar
     5    3    8 ar
     6    4    7 ar
     7    4    9 ar
     8    5   18 1
     9    6    7 ar
    10    6   11 1
    11    7   14 1
    12    8    9 ar
    13    8   20 1
    14    9   21 1
    15   10   12 1
    16   10   18 1
    17   11   15 2
    18   11   19 1
    19   12   14 1
    20   13   20 1
    21   16   20 2
    22   17   20 2
    23    1   22 1
    24    2   23 1
    25    3   24 1
    26    4   25 1
    27    5   26 1
    28   12   27 1
    29   12   28 1
    30   13   29 1
    31   13   30 1
    32   14   31 1
    33   19   32 1
@<TRIPOS>MOLECULE
*****
   32    33     0     0     0
SMALL
NO_CHARGES

@<TRIPOS>ATOM
      1 C1         -4.2119    0.1945    4.9284 C.2       1 <0>         0.0000
      2 C2         -2.8666    0.5702    5.1568 C.2       1 <0>         0.0000
      3 C3          1.8851   -1.0363   -0.1124 C.ar      1 <0>         0.0000
      4 C4          1.7997   -1.0786    2.6757 C.ar      1 <0>         0.0000
      5 C5         -4.1807   -0.7469    3.9260 C.2       1 <0>         0.0000
      6 C6          0.8066   -0.4630    0.5610 C.ar      1 <0>         0.0000
      7 C7          0.7638   -0.4841    1.9551 C.ar      1 <0>         0.0000
      8 C8          2.9210   -1.6309    0.6081 C.ar      1 <0>         0.0000
      9 C9          2.8783   -1.6520    2.0022 C.ar      1 <0>         0.0000
     10 C10        -2.1092   -0.1686    4.2779 C.2       1 <0>         0.0000
     11 C11        -0.2597    0.1505   -0.2205 C.2       1 <0>         0.0000
     12 C12        -0.6343   -0.2470    4.0080 C.3       1 <0>         0.0000
     13 N1          5.3017   -0.9953   -0.4082 N.pl3     1 <0>         0.0000
     14 N2         -0.3194    0.0914    2.6559 N.pl3     1 <0>         0.0000
     15 O1         -0.9578    1.0989    0.1469 O.2       1 <0>         0.0000
     16 O2          4.8710   -3.3532    0.5407 O.2       1 <0>         0.0000
     17 O3          3.7708   -2.6745   -1.6219 O.2       1 <0>         0.0000
     18 O4         -2.9026   -0.9740    3.5240 O.3       1 <0>         0.0000
     19 O5         -0.4169   -0.4409   -1.4352 O.3       1 <0>         0.0000
     20 S1          4.2498   -2.3351   -0.2914 S.o2      1 <0>         0.0000
     21 Cl1         4.1349   -2.3756    2.9403 Cl        1 <0>         0.0000
     22 H1         -5.0940    0.5639    5.4311 H         1 <0>         0.0000
     23 H2         -2.4983    1.2905    5.8735 H         1 <0>         0.0000
     24 H3          1.9175   -1.0191   -1.1997 H         1 <0>         0.0000
     25 H4          1.7615   -1.0924    3.7631 H         1 <0>         0.0000
     26 H5         -4.9405   -1.3194    3.4145 H         1 <0>         0.0000
     27 H6         -0.0849    0.4372    4.6637 H         1 <0>         0.0000
     28 H7         -0.2531   -1.2559    4.1981 H         1 <0>         0.0000
     29 H8          6.1638   -1.0106    0.1504 H         1 <0>         0.0000
     30 H9          5.4099   -0.5473   -1.3263 H         1 <0>         0.0000
     31 H10        -0.8743    0.7612    2.1595 H         1 <0>         0.0000
     32 H11        -1.1320   -0.0344   -1.9696 H         1 <0>         0.0000
@<TRIPOS>BOND
     1    1    2 1
     2    1    5 2
     3    2   10 2
     4    3    6 ar
     5    3    8 ar
     6    4    7 ar
     7    4    9 ar
     8    5   18 1
     9    6    7 ar
    10    6   11 1
    11    7   14 1
    12    8    9 ar
    13    8   20 1
    14    9   21 1
    15   10   12 1
    16   10   18 1
    17   11   15 2
    18   11   19 1
    19   12   14 1
    20   13   20 1
    21   16   20 2
    22   17   20 2
    23    1   22 1
    24    2   23 1
    25    3   24 1
    26    4   25 1
    27    5   26 1
    28   12   27 1
    29   12   28 1
    30   13   29 1
    31   13   30 1
    32   14   31 1
    33   19   32 1
@<TRIPOS>MOLECULE
*****
   32    33     0     0     0
SMALL
NO_CHARGES

@<TRIPOS>ATOM
      1 C1         -2.9271    2.6990    5.3144 C.2       1 <0>         0.0000
      2 C2         -2.0049    1.6614    5.5904 C.2       1 <0>         0.0000
      3 C3          1.8851   -1.0363   -0.1124 C.ar      1 <0>         0.0000
      4 C4          1.7997   -1.0786    2.6757 C.ar      1 <0>         0.0000
      5 C5         -2.7493    3.0259    3.9902 C.2       1 <0>         0.0000
      6 C6          0.8066   -0.4630    0.5610 C.ar      1 <0>         0.0000
      7 C7          0.7638   -0.4841    1.9551 C.ar      1 <0>         0.0000
      8 C8          2.9210   -1.6309    0.6081 C.ar      1 <0>         0.0000
      9 C9          2.8783   -1.6520    2.0022 C.ar      1 <0>         0.0000
     10 C10        -1.3295    1.4281    4.4151 C.2       1 <0>         0.0000
     11 C11        -0.2597    0.1505   -0.2205 C.2       1 <0>         0.0000
     12 C12        -0.2376    0.4719    4.0308 C.3       1 <0>         0.0000
     13 N1          3.6819   -3.9315   -0.5023 N.pl3     1 <0>         0.0000
     14 N2         -0.3194    0.0914    2.6559 N.pl3     1 <0>         0.0000
     15 O1         -1.4445   -0.1926   -0.2028 O.2       1 <0>         0.0000
     16 O2          4.3156   -1.6812   -1.5886 O.2       1 <0>         0.0000
     17 O3          5.4206   -2.3623    0.5707 O.2       1 <0>         0.0000
     18 O4         -1.7774    2.2557    3.4348 O.3       1 <0>         0.0000
     19 O5          0.1902    1.1727   -0.9968 O.3       1 <0>         0.0000
     20 S1          4.2498   -2.3351   -0.2914 S.o2      1 <0>         0.0000
     21 Cl1         4.1349   -2.3756    2.9403 Cl        1 <0>         0.0000
     22 H1         -3.6328    3.1522    5.9955 H         1 <0>         0.0000
     23 H2         -1.8536    1.1498    6.5303 H         1 <0>         0.0000
     24 H3          1.9175   -1.0191   -1.1997 H         1 <0>         0.0000
     25 H4          1.7615   -1.0924    3.7631 H         1 <0>         0.0000
     26 H5         -3.2107    3.7451    3.3295 H         1 <0>         0.0000
     27 H6          0.7468    0.9226    4.1980 H         1 <0>         0.0000
     28 H7         -0.2842   -0.4408    4.6341 H         1 <0>         0.0000
     29 H8          3.3857   -4.2160   -1.4440 H         1 <0>         0.0000
     30 H9          4.1398   -4.6794    0.0326 H         1 <0>         0.0000
     31 H10        -1.1691    0.2259    2.1433 H         1 <0>         0.0000
     32 H11        -0.5205    1.5931   -1.5264 H         1 <0>         0.0000
@<TRIPOS>BOND
     1    1    2 1
     2    1    5 2
     3    2   10 2
     4    3    6 ar
     5    3    8 ar
     6    4    7 ar
     7    4    9 ar
     8    5   18 1
     9    6    7 ar
    10    6   11 1
    11    7   14 1
    12    8    9 ar
    13    8   20 1
    14    9   21 1
    15   10   12 1
    16   10   18 1
    17   11   15 2
    18   11   19 1
    19   12   14 1
    20   13   20 1
    21   16   20 2
    22   17   20 2
    23    1   22 1
    24    2   23 1
    25    3   24 1
    26    4   25 1
    27    5   26 1
    28   12   27 1
    29   12   28 1
    30   13   29 1
    31   13   30 1
    32   14   31 1
    33   19   32 1
@<TRIPOS>MOLECULE
*****
   32    33     0     0     0
SMALL
NO_CHARGES

@<TRIPOS>ATOM
      1 C1         -2.9339    2.9612    4.6427 C.2       1 <0>         0.0000
      2 C2         -2.0222    2.3928    3.7213 C.2       1 <0>         0.0000
      3 C3          1.8851   -1.0363   -0.1124 C.ar      1 <0>         0.0000
      4 C4          1.7997   -1.0786    2.6757 C.ar      1 <0>         0.0000
      5 C5         -2.7335    2.3031    5.8338 C.2       1 <0>         0.0000
      6 C6          0.8066   -0.4630    0.5610 C.ar      1 <0>         0.0000
      7 C7          0.7638   -0.4841    1.9551 C.ar      1 <0>         0.0000
      8 C8          2.9210   -1.6309    0.6081 C.ar      1 <0>         0.0000
      9 C9          2.8783   -1.6520    2.0022 C.ar      1 <0>         0.0000
     10 C10        -1.3295    1.4281    4.4151 C.2       1 <0>         0.0000
     11 C11        -0.2597    0.1505   -0.2205 C.2       1 <0>         0.0000
     12 C12        -0.2376    0.4719    4.0308 C.3       1 <0>         0.0000
     13 N1          3.7571   -2.0119   -1.8940 N.pl3     1 <0>         0.0000
     14 N2         -0.3194    0.0914    2.6559 N.pl3     1 <0>         0.0000
     15 O1         -1.4445   -0.1926   -0.2028 O.2       1 <0>         0.0000
     16 O2          5.4503   -1.5673   -0.0016 O.2       1 <0>         0.0000
     17 O3          4.2353   -3.7732   -0.0757 O.2       1 <0>         0.0000
     18 O4         -1.7570    1.3671    5.7035 O.3       1 <0>         0.0000
     19 O5          0.1902    1.1727   -0.9968 O.3       1 <0>         0.0000
     20 S1          4.2498   -2.3351   -0.2914 S.o2      1 <0>         0.0000
     21 Cl1         4.1349   -2.3756    2.9403 Cl        1 <0>         0.0000
     22 H1         -3.6481    3.7513    4.4613 H         1 <0>         0.0000
     23 H2         -1.8895    2.6557    2.6815 H         1 <0>         0.0000
     24 H3          1.9175   -1.0191   -1.1997 H         1 <0>         0.0000
     25 H4          1.7615   -1.0924    3.7631 H         1 <0>         0.0000
     26 H5         -3.1804    2.3793    6.8141 H         1 <0>         0.0000
     27 H6          0.7468    0.9226    4.1980 H         1 <0>         0.0000
     28 H7         -0.2842   -0.4408    4.6341 H         1 <0>         0.0000
     29 H8          4.2724   -1.2958   -2.4203 H         1 <0>         0.0000
     30 H9          3.4412   -2.8026   -2.4687 H         1 <0>         0.0000
     31 H10        -1.1691    0.2259    2.1433 H         1 <0>         0.0000
     32 H11        -0.5205    1.5931   -1.5264 H         1 <0>         0.0000
@<TRIPOS>BOND
     1    1    2 1
     2    1    5 2
     3    2   10 2
     4    3    6 ar
     5    3    8 ar
     6    4    7 ar
     7    4    9 ar
     8    5   18 1
     9    6    7 ar
    10    6   11 1
    11    7   14 1
    12    8    9 ar
    13    8   20 1
    14    9   21 1
    15   10   12 1
    16   10   18 1
    17   11   15 2
    18   11   19 1
    19   12   14 1
    20   13   20 1
    21   16   20 2
    22   17   20 2
    23    1   22 1
    24    2   23 1
    25    3   24 1
    26    4   25 1
    27    5   26 1
    28   12   27 1
    29   12   28 1
    30   13   29 1
    31   13   30 1
    32   14   31 1
    33   19   32 1
@<TRIPOS>MOLECULE
*****
   32    33     0     0     0
SMALL
NO_CHARGES

@<TRIPOS>ATOM
      1 C1         -4.3315   -0.3016    4.4189 C.2       1 <0>         0.0000
      2 C2         -3.1998   -0.8091    3.7372 C.2       1 <0>         0.0000
      3 C3          1.8851   -1.0363   -0.1124 C.ar      1 <0>         0.0000
      4 C4          1.7997   -1.0786    2.6757 C.ar      1 <0>         0.0000
      5 C5         -3.8518    0.6125    5.3278 C.2       1 <0>         0.0000
      6 C6          0.8066   -0.4630    0.5610 C.ar      1 <0>         0.0000
      7 C7          0.7638   -0.4841    1.9551 C.ar      1 <0>         0.0000
      8 C8          2.9210   -1.6309    0.6081 C.ar      1 <0>         0.0000
      9 C9          2.8783   -1.6520    2.0022 C.ar      1 <0>         0.0000
     10 C10        -2.1092   -0.1686    4.2779 C.2       1 <0>         0.0000
     11 C11        -0.2597    0.1505   -0.2205 C.2       1 <0>         0.0000
     12 C12        -0.6343   -0.2470    4.0080 C.3       1 <0>         0.0000
     13 N1          5.3017   -0.9953   -0.4082 N.pl3     1 <0>         0.0000
     14 N2         -0.3194    0.0914    2.6559 N.pl3     1 <0>         0.0000
     15 O1         -0.9578    1.0989    0.1469 O.2       1 <0>         0.0000
     16 O2          4.8710   -3.3532    0.5407 O.2       1 <0>         0.0000
     17 O3          3.7708   -2.6745   -1.6219 O.2       1 <0>         0.0000
     18 O4         -2.4981    0.6997    5.2482 O.3       1 <0>         0.0000
     19 O5         -0.4169   -0.4409   -1.4352 O.3       1 <0>         0.0000
     20 S1          4.2498   -2.3351   -0.2914 S.o2      1 <0>         0.0000
     21 Cl1         4.1349   -2.3756    2.9403 Cl        1 <0>         0.0000
     22 H1         -5.3672   -0.5690    4.2672 H         1 <0>         0.0000
     23 H2         -3.1844   -1.5497    2.9503 H         1 <0>         0.0000
     24 H3          1.9175   -1.0191   -1.1997 H         1 <0>         0.0000
     25 H4          1.7615   -1.0924    3.7631 H         1 <0>         0.0000
     26 H5         -4.3189    1.2504    6.0638 H         1 <0>         0.0000
     27 H6         -0.0849    0.4372    4.6637 H         1 <0>         0.0000
     28 H7         -0.2531   -1.2559    4.1981 H         1 <0>         0.0000
     29 H8          6.1638   -1.0106    0.1504 H         1 <0>         0.0000
     30 H9          5.4099   -0.5473   -1.3263 H         1 <0>         0.0000
     31 H10        -0.8743    0.7612    2.1595 H         1 <0>         0.0000
     32 H11        -1.1320   -0.0344   -1.9696 H         1 <0>         0.0000
@<TRIPOS>BOND
     1    1    2 1
     2    1    5 2
     3    2   10 2
     4    3    6 ar
     5    3    8 ar
     6    4    7 ar
     7    4    9 ar
     8    5   18 1
     9    6    7 ar
    10    6   11 1
    11    7   14 1
    12    8    9 ar
    13    8   20 1
    14    9   21 1
    15   10   12 1
    16   10   18 1
    17   11   15 2
    18   11   19 1
    19   12   14 1
    20   13   20 1
    21   16   20 2
    22   17   20 2
    23    1   22 1
    24    2   23 1
    25    3   24 1
    26    4   25 1
    27    5   26 1
    28   12   27 1
    29   12   28 1
    30   13   29 1
    31   13   30 1
    32   14   31 1
    33   19   32 1
@<TRIPOS>MOLECULE
*****
   32    33     0     0     0
SMALL
NO_CHARGES

@<TRIPOS>ATOM
      1 C1          2.1330    3.3196    4.3660 C.2       1 <0>         0.0000
      2 C2          0.9521    2.8146    3.7713 C.2       1 <0>         0.0000
      3 C3          1.8851   -1.0363   -0.1124 C.ar      1 <0>         0.0000
      4 C4          1.7997   -1.0786    2.6757 C.ar      1 <0>         0.0000
      5 C5          2.6132    2.3156    5.1742 C.2       1 <0>         0.0000
      6 C6          0.8066   -0.4630    0.5610 C.ar      1 <0>         0.0000
      7 C7          0.7638   -0.4841    1.9551 C.ar      1 <0>         0.0000
      8 C8          2.9210   -1.6309    0.6081 C.ar      1 <0>         0.0000
      9 C9          2.8783   -1.6520    2.0022 C.ar      1 <0>         0.0000
     10 C10         0.7950    1.5378    4.2583 C.2       1 <0>         0.0000
     11 C11        -0.2597    0.1505   -0.2205 C.2       1 <0>         0.0000
     12 C12        -0.2376    0.4719    4.0308 C.3       1 <0>         0.0000
     13 N1          3.7571   -2.0119   -1.8940 N.pl3     1 <0>         0.0000
     14 N2         -0.3194    0.0914    2.6559 N.pl3     1 <0>         0.0000
     15 O1         -0.9578    1.0989    0.1469 O.2       1 <0>         0.0000
     16 O2          5.4503   -1.5673   -0.0016 O.2       1 <0>         0.0000
     17 O3          4.2353   -3.7732   -0.0757 O.2       1 <0>         0.0000
     18 O4          1.8035    1.2260    5.1141 O.3       1 <0>         0.0000
     19 O5         -0.4169   -0.4409   -1.4352 O.3       1 <0>         0.0000
     20 S1          4.2498   -2.3351   -0.2914 S.o2      1 <0>         0.0000
     21 Cl1         4.1349   -2.3756    2.9403 Cl        1 <0>         0.0000
     22 H1          2.5781    4.2937    4.2238 H         1 <0>         0.0000
     23 H2          0.2988    3.3210    3.0750 H         1 <0>         0.0000
     24 H3          1.9175   -1.0191   -1.1997 H         1 <0>         0.0000
     25 H4          1.7615   -1.0924    3.7631 H         1 <0>         0.0000
     26 H5          3.4726    2.2243    5.8220 H         1 <0>         0.0000
     27 H6         -0.0027   -0.4243    4.6154 H         1 <0>         0.0000
     28 H7         -1.2301    0.8132    4.3434 H         1 <0>         0.0000
     29 H8          4.2724   -1.2958   -2.4203 H         1 <0>         0.0000
     30 H9          3.4412   -2.8026   -2.4687 H         1 <0>         0.0000
     31 H10        -1.1691    0.2259    2.1433 H         1 <0>         0.0000
     32 H11        -1.1320   -0.0344   -1.9696 H         1 <0>         0.0000
@<TRIPOS>BOND
     1    1    2 1
     2    1    5 2
     3    2   10 2
     4    3    6 ar
     5    3    8 ar
     6    4    7 ar
     7    4    9 ar
     8    5   18 1
     9    6    7 ar
    10    6   11 1
    11    7   14 1
    12    8    9 ar
    13    8   20 1
    14    9   21 1
    15   10   12 1
    16   10   18 1
    17   11   15 2
    18   11   19 1
    19   12   14 1
    20   13   20 1
    21   16   20 2
    22   17   20 2
    23    1   22 1
    24    2   23 1
    25    3   24 1
    26    4   25 1
    27    5   26 1
    28   12   27 1
    29   12   28 1
    30   13   29 1
    31   13   30 1
    32   14   31 1
    33   19   32 1
@<TRIPOS>MOLECULE
*****
   32    33     0     0     0
SMALL
NO_CHARGES

@<TRIPOS>ATOM
      1 C1         -2.9271    2.6990    5.3144 C.2       1 <0>         0.0000
      2 C2         -2.0049    1.6614    5.5904 C.2       1 <0>         0.0000
      3 C3          1.8851   -1.0363   -0.1124 C.ar      1 <0>         0.0000
      4 C4          1.7997   -1.0786    2.6757 C.ar      1 <0>         0.0000
      5 C5         -2.7493    3.0259    3.9902 C.2       1 <0>         0.0000
      6 C6          0.8066   -0.4630    0.5610 C.ar      1 <0>         0.0000
      7 C7          0.7638   -0.4841    1.9551 C.ar      1 <0>         0.0000
      8 C8          2.9210   -1.6309    0.6081 C.ar      1 <0>         0.0000
      9 C9          2.8783   -1.6520    2.0022 C.ar      1 <0>         0.0000
     10 C10        -1.3295    1.4281    4.4151 C.2       1 <0>         0.0000
     11 C11        -0.2597    0.1505   -0.2205 C.2       1 <0>         0.0000
     12 C12        -0.2376    0.4719    4.0308 C.3       1 <0>         0.0000
     13 N1          5.3017   -0.9953   -0.4082 N.pl3     1 <0>         0.0000
     14 N2         -0.3194    0.0914    2.6559 N.pl3     1 <0>         0.0000
     15 O1         -1.4445   -0.1926   -0.2028 O.2       1 <0>         0.0000
     16 O2          4.8710   -3.3532    0.5407 O.2       1 <0>         0.0000
     17 O3          3.7708   -2.6745   -1.6219 O.2       1 <0>         0.0000
     18 O4         -1.7774    2.2557    3.4348 O.3       1 <0>         0.0000
     19 O5          0.1902    1.1727   -0.9968 O.3       1 <0>         0.0000
     20 S1          4.2498   -2.3351   -0.2914 S.o2      1 <0>         0.0000
     21 Cl1         4.1349   -2.3756    2.9403 Cl        1 <0>         0.0000
     22 H1         -3.6328    3.1522    5.9955 H         1 <0>         0.0000
     23 H2         -1.8536    1.1498    6.5303 H         1 <0>         0.0000
     24 H3          1.9175   -1.0191   -1.1997 H         1 <0>         0.0000
     25 H4          1.7615   -1.0924    3.7631 H         1 <0>         0.0000
     26 H5         -3.2107    3.7451    3.3295 H         1 <0>         0.0000
     27 H6          0.7468    0.9226    4.1980 H         1 <0>         0.0000
     28 H7         -0.2842   -0.4408    4.6341 H         1 <0>         0.0000
     29 H8          6.1638   -1.0106    0.1504 H         1 <0>         0.0000
     30 H9          5.4099   -0.5473   -1.3263 H         1 <0>         0.0000
     31 H10        -1.1691    0.2259    2.1433 H         1 <0>         0.0000
     32 H11        -0.5205    1.5931   -1.5264 H         1 <0>         0.0000
@<TRIPOS>BOND
     1    1    2 1
     2    1    5 2
     3    2   10 2
     4    3    6 ar
     5    3    8 ar
     6    4    7 ar
     7    4    9 ar
     8    5   18 1
     9    6    7 ar
    10    6   11 1
    11    7   14 1
    12    8    9 ar
    13    8   20 1
    14    9   21 1
    15   10   12 1
    16   10   18 1
    17   11   15 2
    18   11   19 1
    19   12   14 1
    20   13   20 1
    21   16   20 2
    22   17   20 2
    23    1   22 1
    24    2   23 1
    25    3   24 1
    26    4   25 1
    27    5   26 1
    28   12   27 1
    29   12   28 1
    30   13   29 1
    31   13   30 1
    32   14   31 1
    33   19   32 1
@<TRIPOS>MOLECULE
*****
   32    33     0     0     0
SMALL
NO_CHARGES

@<TRIPOS>ATOM
      1 C1          2.4854    2.8818    4.8177 C.2       1 <0>         0.0000
      2 C2          1.9319    1.5966    5.0303 C.2       1 <0>         0.0000
      3 C3          1.8851   -1.0363   -0.1124 C.ar      1 <0>         0.0000
      4 C4          1.7997   -1.0786    2.6757 C.ar      1 <0>         0.0000
      5 C5          1.6475    3.5165    3.9306 C.2       1 <0>         0.0000
      6 C6          0.8066   -0.4630    0.5610 C.ar      1 <0>         0.0000
      7 C7          0.7638   -0.4841    1.9551 C.ar      1 <0>         0.0000
      8 C8          2.9210   -1.6309    0.6081 C.ar      1 <0>         0.0000
      9 C9          2.8783   -1.6520    2.0022 C.ar      1 <0>         0.0000
     10 C10         0.7950    1.5378    4.2583 C.2       1 <0>         0.0000
     11 C11        -0.2597    0.1505   -0.2205 C.2       1 <0>         0.0000
     12 C12        -0.2376    0.4719    4.0308 C.3       1 <0>         0.0000
     13 N1          3.7571   -2.0119   -1.8940 N.pl3     1 <0>         0.0000
     14 N2         -0.3194    0.0914    2.6559 N.pl3     1 <0>         0.0000
     15 O1         -0.9578    1.0989    0.1469 O.2       1 <0>         0.0000
     16 O2          5.4503   -1.5673   -0.0016 O.2       1 <0>         0.0000
     17 O3          4.2353   -3.7732   -0.0757 O.2       1 <0>         0.0000
     18 O4          0.6145    2.7042    3.5848 O.3       1 <0>         0.0000
     19 O5         -0.4169   -0.4409   -1.4352 O.3       1 <0>         0.0000
     20 S1          4.2498   -2.3351   -0.2914 S.o2      1 <0>         0.0000
     21 Cl1         4.1349   -2.3756    2.9403 Cl        1 <0>         0.0000
     22 H1          3.3830    3.2937    5.2557 H         1 <0>         0.0000
     23 H2          2.3166    0.8129    5.6674 H         1 <0>         0.0000
     24 H3          1.9175   -1.0191   -1.1997 H         1 <0>         0.0000
     25 H4          1.7615   -1.0924    3.7631 H         1 <0>         0.0000
     26 H5          1.6471    4.4945    3.4720 H         1 <0>         0.0000
     27 H6         -0.0027   -0.4243    4.6154 H         1 <0>         0.0000
     28 H7         -1.2301    0.8132    4.3434 H         1 <0>         0.0000
     29 H8          4.2724   -1.2958   -2.4203 H         1 <0>         0.0000
     30 H9          3.4412   -2.8026   -2.4687 H         1 <0>         0.0000
     31 H10        -1.1691    0.2259    2.1433 H         1 <0>         0.0000
     32 H11        -1.1320   -0.0344   -1.9696 H         1 <0>         0.0000
@<TRIPOS>BOND
     1    1    2 1
     2    1    5 2
     3    2   10 2
     4    3    6 ar
     5    3    8 ar
     6    4    7 ar
     7    4    9 ar
     8    5   18 1
     9    6    7 ar
    10    6   11 1
    11    7   14 1
    12    8    9 ar
    13    8   20 1
    14    9   21 1
    15   10   12 1
    16   10   18 1
    17   11   15 2
    18   11   19 1
    19   12   14 1
    20   13   20 1
    21   16   20 2
    22   17   20 2
    23    1   22 1
    24    2   23 1
    25    3   24 1
    26    4   25 1
    27    5   26 1
    28   12   27 1
    29   12   28 1
    30   13   29 1
    31   13   30 1
    32   14   31 1
    33   19   32 1
@<TRIPOS>MOLECULE
*****
   32    33     0     0     0
SMALL
NO_CHARGES

@<TRIPOS>ATOM
      1 C1         -1.3287   -2.4582    6.0470 C.2       1 <0>         0.0000
      2 C2         -1.4329   -1.7422    4.8306 C.2       1 <0>         0.0000
      3 C3          1.8851   -1.0363   -0.1124 C.ar      1 <0>         0.0000
      4 C4          1.7997   -1.0786    2.6757 C.ar      1 <0>         0.0000
      5 C5         -0.4286   -1.7650    6.8225 C.2       1 <0>         0.0000
      6 C6          0.8066   -0.4630    0.5610 C.ar      1 <0>         0.0000
      7 C7          0.7638   -0.4841    1.9551 C.ar      1 <0>         0.0000
      8 C8          2.9210   -1.6309    0.6081 C.ar      1 <0>         0.0000
      9 C9          2.8783   -1.6520    2.0022 C.ar      1 <0>         0.0000
     10 C10        -0.5893   -0.6623    4.9496 C.2       1 <0>         0.0000
     11 C11        -0.2597    0.1505   -0.2205 C.2       1 <0>         0.0000
     12 C12        -0.2376    0.4719    4.0308 C.3       1 <0>         0.0000
     13 N1          3.6819   -3.9315   -0.5023 N.pl3     1 <0>         0.0000
     14 N2         -0.3194    0.0914    2.6559 N.pl3     1 <0>         0.0000
     15 O1         -0.9578    1.0989    0.1469 O.2       1 <0>         0.0000
     16 O2          4.3156   -1.6812   -1.5886 O.2       1 <0>         0.0000
     17 O3          5.4206   -2.3623    0.5707 O.2       1 <0>         0.0000
     18 O4          0.0266   -0.6688    6.1608 O.3       1 <0>         0.0000
     19 O5         -0.4169   -0.4409   -1.4352 O.3       1 <0>         0.0000
     20 S1          4.2498   -2.3351   -0.2914 S.o2      1 <0>         0.0000
     21 Cl1         4.1349   -2.3756    2.9403 Cl        1 <0>         0.0000
     22 H1         -1.8445   -3.3662    6.3238 H         1 <0>         0.0000
     23 H2         -2.0471   -1.9859    3.9755 H         1 <0>         0.0000
     24 H3          1.9175   -1.0191   -1.1997 H         1 <0>         0.0000
     25 H4          1.7615   -1.0924    3.7631 H         1 <0>         0.0000
     26 H5         -0.0273   -1.9127    7.8143 H         1 <0>         0.0000
     27 H6         -0.9140    1.3193    4.1871 H         1 <0>         0.0000
     28 H7          0.7803    0.8291    4.2193 H         1 <0>         0.0000
     29 H8          3.3857   -4.2160   -1.4440 H         1 <0>         0.0000
     30 H9          4.1398   -4.6794    0.0326 H         1 <0>         0.0000
     31 H10        -1.1691    0.2259    2.1433 H         1 <0>         0.0000
     32 H11        -1.1320   -0.0344   -1.9696 H         1 <0>         0.0000
@<TRIPOS>BOND
     1    1    2 1
     2    1    5 2
     3    2   10 2
     4    3    6 ar
     5    3    8 ar
     6    4    7 ar
     7    4    9 ar
     8    5   18 1
     9    6    7 ar
    10    6   11 1
    11    7   14 1
    12    8    9 ar
    13    8   20 1
    14    9   21 1
    15   10   12 1
    16   10   18 1
    17   11   15 2
    18   11   19 1
    19   12   14 1
    20   13   20 1
    21   16   20 2
    22   17   20 2
    23    1   22 1
    24    2   23 1
    25    3   24 1
    26    4   25 1
    27    5   26 1
    28   12   27 1
    29   12   28 1
    30   13   29 1
    31   13   30 1
    32   14   31 1
    33   19   32 1
@<TRIPOS>MOLECULE
*****
   32    33     0     0     0
SMALL
NO_CHARGES

@<TRIPOS>ATOM
      1 C1         -1.3287   -2.4582    6.0470 C.2       1 <0>         0.0000
      2 C2         -1.4329   -1.7422    4.8306 C.2       1 <0>         0.0000
      3 C3          1.8851   -1.0363   -0.1124 C.ar      1 <0>         0.0000
      4 C4          1.7997   -1.0786    2.6757 C.ar      1 <0>         0.0000
      5 C5         -0.4286   -1.7650    6.8225 C.2       1 <0>         0.0000
      6 C6          0.8066   -0.4630    0.5610 C.ar      1 <0>         0.0000
      7 C7          0.7638   -0.4841    1.9551 C.ar      1 <0>         0.0000
      8 C8          2.9210   -1.6309    0.6081 C.ar      1 <0>         0.0000
      9 C9          2.8783   -1.6520    2.0022 C.ar      1 <0>         0.0000
     10 C10        -0.5893   -0.6623    4.9496 C.2       1 <0>         0.0000
     11 C11        -0.2597    0.1505   -0.2205 C.2       1 <0>         0.0000
     12 C12        -0.2376    0.4719    4.0308 C.3       1 <0>         0.0000
     13 N1          5.3017   -0.9953   -0.4082 N.pl3     1 <0>         0.0000
     14 N2         -0.3194    0.0914    2.6559 N.pl3     1 <0>         0.0000
     15 O1         -0.9578    1.0989    0.1469 O.2       1 <0>         0.0000
     16 O2          4.8710   -3.3532    0.5407 O.2       1 <0>         0.0000
     17 O3          3.7708   -2.6745   -1.6219 O.2       1 <0>         0.0000
     18 O4          0.0266   -0.6688    6.1608 O.3       1 <0>         0.0000
     19 O5         -0.4169   -0.4409   -1.4352 O.3       1 <0>         0.0000
     20 S1          4.2498   -2.3351   -0.2914 S.o2      1 <0>         0.0000
     21 Cl1         4.1349   -2.3756    2.9403 Cl        1 <0>         0.0000
     22 H1         -1.8445   -3.3662    6.3238 H         1 <0>         0.0000
     23 H2         -2.0471   -1.9859    3.9755 H         1 <0>         0.0000
     24 H3          1.9175   -1.0191   -1.1997 H         1 <0>         0.0000
     25 H4          1.7615   -1.0924    3.7631 H         1 <0>         0.0000
     26 H5         -0.0273   -1.9127    7.8143 H         1 <0>         0.0000
     27 H6         -0.9140    1.3193    4.1871 H         1 <0>         0.0000
     28 H7          0.7803    0.8291    4.2193 H         1 <0>         0.0000
     29 H8          6.1638   -1.0106    0.1504 H         1 <0>         0.0000
     30 H9          5.4099   -0.5473   -1.3263 H         1 <0>         0.0000
     31 H10        -1.1691    0.2259    2.1433 H         1 <0>         0.0000
     32 H11        -1.1320   -0.0344   -1.9696 H         1 <0>         0.0000
@<TRIPOS>BOND
     1    1    2 1
     2    1    5 2
     3    2   10 2
     4    3    6 ar
     5    3    8 ar
     6    4    7 ar
     7    4    9 ar
     8    5   18 1
     9    6    7 ar
    10    6   11 1
    11    7   14 1
    12    8    9 ar
    13    8   20 1
    14    9   21 1
    15   10   12 1
    16   10   18 1
    17   11   15 2
    18   11   19 1
    19   12   14 1
    20   13   20 1
    21   16   20 2
    22   17   20 2
    23    1   22 1
    24    2   23 1
    25    3   24 1
    26    4   25 1
    27    5   26 1
    28   12   27 1
    29   12   28 1
    30   13   29 1
    31   13   30 1
    32   14   31 1
    33   19   32 1
@<TRIPOS>MOLECULE
*****
   32    33     0     0     0
SMALL
NO_CHARGES

@<TRIPOS>ATOM
      1 C1         -4.2119    0.1945    4.9284 C.2       1 <0>         0.0000
      2 C2         -2.8666    0.5702    5.1568 C.2       1 <0>         0.0000
      3 C3          1.8851   -1.0363   -0.1124 C.ar      1 <0>         0.0000
      4 C4          1.7997   -1.0786    2.6757 C.ar      1 <0>         0.0000
      5 C5         -4.1807   -0.7469    3.9260 C.2       1 <0>         0.0000
      6 C6          0.8066   -0.4630    0.5610 C.ar      1 <0>         0.0000
      7 C7          0.7638   -0.4841    1.9551 C.ar      1 <0>         0.0000
      8 C8          2.9210   -1.6309    0.6081 C.ar      1 <0>         0.0000
      9 C9          2.8783   -1.6520    2.0022 C.ar      1 <0>         0.0000
     10 C10        -2.1092   -0.1686    4.2779 C.2       1 <0>         0.0000
     11 C11        -0.2597    0.1505   -0.2205 C.2       1 <0>         0.0000
     12 C12        -0.6343   -0.2470    4.0080 C.3       1 <0>         0.0000
     13 N1          3.7571   -2.0119   -1.8940 N.pl3     1 <0>         0.0000
     14 N2         -0.3194    0.0914    2.6559 N.pl3     1 <0>         0.0000
     15 O1         -0.9578    1.0989    0.1469 O.2       1 <0>         0.0000
     16 O2          5.4503   -1.5673   -0.0016 O.2       1 <0>         0.0000
     17 O3          4.2353   -3.7732   -0.0757 O.2       1 <0>         0.0000
     18 O4         -2.9026   -0.9740    3.5240 O.3       1 <0>         0.0000
     19 O5         -0.4169   -0.4409   -1.4352 O.3       1 <0>         0.0000
     20 S1          4.2498   -2.3351   -0.2914 S.o2      1 <0>         0.0000
     21 Cl1         4.1349   -2.3756    2.9403 Cl        1 <0>         0.0000
     22 H1         -5.0940    0.5639    5.4311 H         1 <0>         0.0000
     23 H2         -2.4983    1.2905    5.8735 H         1 <0>         0.0000
     24 H3          1.9175   -1.0191   -1.1997 H         1 <0>         0.0000
     25 H4          1.7615   -1.0924    3.7631 H         1 <0>         0.0000
     26 H5         -4.9405   -1.3194    3.4145 H         1 <0>         0.0000
     27 H6         -0.0849    0.4372    4.6637 H         1 <0>         0.0000
     28 H7         -0.2531   -1.2559    4.1981 H         1 <0>         0.0000
     29 H8          4.2724   -1.2958   -2.4203 H         1 <0>         0.0000
     30 H9          3.4412   -2.8026   -2.4687 H         1 <0>         0.0000
     31 H10        -0.8743    0.7612    2.1595 H         1 <0>         0.0000
     32 H11        -1.1320   -0.0344   -1.9696 H         1 <0>         0.0000
@<TRIPOS>BOND
     1    1    2 1
     2    1    5 2
     3    2   10 2
     4    3    6 ar
     5    3    8 ar
     6    4    7 ar
     7    4    9 ar
     8    5   18 1
     9    6    7 ar
    10    6   11 1
    11    7   14 1
    12    8    9 ar
    13    8   20 1
    14    9   21 1
    15   10   12 1
    16   10   18 1
    17   11   15 2
    18   11   19 1
    19   12   14 1
    20   13   20 1
    21   16   20 2
    22   17   20 2
    23    1   22 1
    24    2   23 1
    25    3   24 1
    26    4   25 1
    27    5   26 1
    28   12   27 1
    29   12   28 1
    30   13   29 1
    31   13   30 1
    32   14   31 1
    33   19   32 1
@<TRIPOS>MOLECULE
*****
   32    33     0     0     0
SMALL
NO_CHARGES

@<TRIPOS>ATOM
      1 C1         -4.3315   -0.3016    4.4189 C.2       1 <0>         0.0000
      2 C2         -3.1998   -0.8091    3.7372 C.2       1 <0>         0.0000
      3 C3          1.8851   -1.0363   -0.1124 C.ar      1 <0>         0.0000
      4 C4          1.7997   -1.0786    2.6757 C.ar      1 <0>         0.0000
      5 C5         -3.8518    0.6125    5.3278 C.2       1 <0>         0.0000
      6 C6          0.8066   -0.4630    0.5610 C.ar      1 <0>         0.0000
      7 C7          0.7638   -0.4841    1.9551 C.ar      1 <0>         0.0000
      8 C8          2.9210   -1.6309    0.6081 C.ar      1 <0>         0.0000
      9 C9          2.8783   -1.6520    2.0022 C.ar      1 <0>         0.0000
     10 C10        -2.1092   -0.1686    4.2779 C.2       1 <0>         0.0000
     11 C11        -0.2597    0.1505   -0.2205 C.2       1 <0>         0.0000
     12 C12        -0.6343   -0.2470    4.0080 C.3       1 <0>         0.0000
     13 N1          3.7571   -2.0119   -1.8940 N.pl3     1 <0>         0.0000
     14 N2         -0.3194    0.0914    2.6559 N.pl3     1 <0>         0.0000
     15 O1         -0.9578    1.0989    0.1469 O.2       1 <0>         0.0000
     16 O2          5.4503   -1.5673   -0.0016 O.2       1 <0>         0.0000
     17 O3          4.2353   -3.7732   -0.0757 O.2       1 <0>         0.0000
     18 O4         -2.4981    0.6997    5.2482 O.3       1 <0>         0.0000
     19 O5         -0.4169   -0.4409   -1.4352 O.3       1 <0>         0.0000
     20 S1          4.2498   -2.3351   -0.2914 S.o2      1 <0>         0.0000
     21 Cl1         4.1349   -2.3756    2.9403 Cl        1 <0>         0.0000
     22 H1         -5.3672   -0.5690    4.2672 H         1 <0>         0.0000
     23 H2         -3.1844   -1.5497    2.9503 H         1 <0>         0.0000
     24 H3          1.9175   -1.0191   -1.1997 H         1 <0>         0.0000
     25 H4          1.7615   -1.0924    3.7631 H         1 <0>         0.0000
     26 H5         -4.3189    1.2504    6.0638 H         1 <0>         0.0000
     27 H6         -0.0849    0.4372    4.6637 H         1 <0>         0.0000
     28 H7         -0.2531   -1.2559    4.1981 H         1 <0>         0.0000
     29 H8          4.2724   -1.2958   -2.4203 H         1 <0>         0.0000
     30 H9          3.4412   -2.8026   -2.4687 H         1 <0>         0.0000
     31 H10        -0.8743    0.7612    2.1595 H         1 <0>         0.0000
     32 H11        -1.1320   -0.0344   -1.9696 H         1 <0>         0.0000
@<TRIPOS>BOND
     1    1    2 1
     2    1    5 2
     3    2   10 2
     4    3    6 ar
     5    3    8 ar
     6    4    7 ar
     7    4    9 ar
     8    5   18 1
     9    6    7 ar
    10    6   11 1
    11    7   14 1
    12    8    9 ar
    13    8   20 1
    14    9   21 1
    15   10   12 1
    16   10   18 1
    17   11   15 2
    18   11   19 1
    19   12   14 1
    20   13   20 1
    21   16   20 2
    22   17   20 2
    23    1   22 1
    24    2   23 1
    25    3   24 1
    26    4   25 1
    27    5   26 1
    28   12   27 1
    29   12   28 1
    30   13   29 1
    31   13   30 1
    32   14   31 1
    33   19   32 1
@<TRIPOS>MOLECULE
*****
   32    33     0     0     0
SMALL
NO_CHARGES

@<TRIPOS>ATOM
      1 C1         -2.9271    2.6990    5.3144 C.2       1 <0>         0.0000
      2 C2         -2.0049    1.6614    5.5904 C.2       1 <0>         0.0000
      3 C3          1.8851   -1.0363   -0.1124 C.ar      1 <0>         0.0000
      4 C4          1.7997   -1.0786    2.6757 C.ar      1 <0>         0.0000
      5 C5         -2.7493    3.0259    3.9902 C.2       1 <0>         0.0000
      6 C6          0.8066   -0.4630    0.5610 C.ar      1 <0>         0.0000
      7 C7          0.7638   -0.4841    1.9551 C.ar      1 <0>         0.0000
      8 C8          2.9210   -1.6309    0.6081 C.ar      1 <0>         0.0000
      9 C9          2.8783   -1.6520    2.0022 C.ar      1 <0>         0.0000
     10 C10        -1.3295    1.4281    4.4151 C.2       1 <0>         0.0000
     11 C11        -0.2597    0.1505   -0.2205 C.2       1 <0>         0.0000
     12 C12        -0.2376    0.4719    4.0308 C.3       1 <0>         0.0000
     13 N1          3.7571   -2.0119   -1.8940 N.pl3     1 <0>         0.0000
     14 N2         -0.3194    0.0914    2.6559 N.pl3     1 <0>         0.0000
     15 O1         -1.4445   -0.1926   -0.2028 O.2       1 <0>         0.0000
     16 O2          5.4503   -1.5673   -0.0016 O.2       1 <0>         0.0000
     17 O3          4.2353   -3.7732   -0.0757 O.2       1 <0>         0.0000
     18 O4         -1.7774    2.2557    3.4348 O.3       1 <0>         0.0000
     19 O5          0.1902    1.1727   -0.9968 O.3       1 <0>         0.0000
     20 S1          4.2498   -2.3351   -0.2914 S.o2      1 <0>         0.0000
     21 Cl1         4.1349   -2.3756    2.9403 Cl        1 <0>         0.0000
     22 H1         -3.6328    3.1522    5.9955 H         1 <0>         0.0000
     23 H2         -1.8536    1.1498    6.5303 H         1 <0>         0.0000
     24 H3          1.9175   -1.0191   -1.1997 H         1 <0>         0.0000
     25 H4          1.7615   -1.0924    3.7631 H         1 <0>         0.0000
     26 H5         -3.2107    3.7451    3.3295 H         1 <0>         0.0000
     27 H6          0.7468    0.9226    4.1980 H         1 <0>         0.0000
     28 H7         -0.2842   -0.4408    4.6341 H         1 <0>         0.0000
     29 H8          4.2724   -1.2958   -2.4203 H         1 <0>         0.0000
     30 H9          3.4412   -2.8026   -2.4687 H         1 <0>         0.0000
     31 H10        -1.1691    0.2259    2.1433 H         1 <0>         0.0000
     32 H11        -0.5205    1.5931   -1.5264 H         1 <0>         0.0000
@<TRIPOS>BOND
     1    1    2 1
     2    1    5 2
     3    2   10 2
     4    3    6 ar
     5    3    8 ar
     6    4    7 ar
     7    4    9 ar
     8    5   18 1
     9    6    7 ar
    10    6   11 1
    11    7   14 1
    12    8    9 ar
    13    8   20 1
    14    9   21 1
    15   10   12 1
    16   10   18 1
    17   11   15 2
    18   11   19 1
    19   12   14 1
    20   13   20 1
    21   16   20 2
    22   17   20 2
    23    1   22 1
    24    2   23 1
    25    3   24 1
    26    4   25 1
    27    5   26 1
    28   12   27 1
    29   12   28 1
    30   13   29 1
    31   13   30 1
    32   14   31 1
    33   19   32 1
@<TRIPOS>MOLECULE
*****
   32    33     0     0     0
SMALL
NO_CHARGES

@<TRIPOS>ATOM
      1 C1         -1.4053   -3.8860    4.0772 C.2       1 <0>         0.0000
      2 C2         -1.4092   -2.6800    3.3364 C.2       1 <0>         0.0000
      3 C3          1.8851   -1.0363   -0.1124 C.ar      1 <0>         0.0000
      4 C4          1.7997   -1.0786    2.6757 C.ar      1 <0>         0.0000
      5 C5         -0.8901   -3.5732    5.3135 C.2       1 <0>         0.0000
      6 C6          0.8066   -0.4630    0.5610 C.ar      1 <0>         0.0000
      7 C7          0.7638   -0.4841    1.9551 C.ar      1 <0>         0.0000
      8 C8          2.9210   -1.6309    0.6081 C.ar      1 <0>         0.0000
      9 C9          2.8783   -1.6520    2.0022 C.ar      1 <0>         0.0000
     10 C10        -0.8963   -1.7162    4.1730 C.2       1 <0>         0.0000
     11 C11        -0.2597    0.1505   -0.2205 C.2       1 <0>         0.0000
     12 C12        -0.6343   -0.2470    4.0080 C.3       1 <0>         0.0000
     13 N1          3.6819   -3.9315   -0.5023 N.pl3     1 <0>         0.0000
     14 N2         -0.3194    0.0914    2.6559 N.pl3     1 <0>         0.0000
     15 O1         -1.4439    0.2177    0.1184 O.2       1 <0>         0.0000
     16 O2          4.3156   -1.6812   -1.5886 O.2       1 <0>         0.0000
     17 O3          5.4206   -2.3623    0.5707 O.2       1 <0>         0.0000
     18 O4         -0.5774   -2.2525    5.3802 O.3       1 <0>         0.0000
     19 O5          0.1899    0.6603   -1.3986 O.3       1 <0>         0.0000
     20 S1          4.2498   -2.3351   -0.2914 S.o2      1 <0>         0.0000
     21 Cl1         4.1349   -2.3756    2.9403 Cl        1 <0>         0.0000
     22 H1         -1.7362   -4.8613    3.7507 H         1 <0>         0.0000
     23 H2         -1.7445   -2.5349    2.3193 H         1 <0>         0.0000
     24 H3          1.9175   -1.0191   -1.1997 H         1 <0>         0.0000
     25 H4          1.7615   -1.0924    3.7631 H         1 <0>         0.0000
     26 H5         -0.6923   -4.1463    6.2075 H         1 <0>         0.0000
     27 H6         -1.5114    0.3375    4.3065 H         1 <0>         0.0000
     28 H7          0.2015    0.0762    4.6374 H         1 <0>         0.0000
     29 H8          3.3857   -4.2160   -1.4440 H         1 <0>         0.0000
     30 H9          4.1398   -4.6794    0.0326 H         1 <0>         0.0000
     31 H10        -0.8743    0.7612    2.1595 H         1 <0>         0.0000
     32 H11        -0.5205    1.0766   -1.9319 H         1 <0>         0.0000
@<TRIPOS>BOND
     1    1    2 1
     2    1    5 2
     3    2   10 2
     4    3    6 ar
     5    3    8 ar
     6    4    7 ar
     7    4    9 ar
     8    5   18 1
     9    6    7 ar
    10    6   11 1
    11    7   14 1
    12    8    9 ar
    13    8   20 1
    14    9   21 1
    15   10   12 1
    16   10   18 1
    17   11   15 2
    18   11   19 1
    19   12   14 1
    20   13   20 1
    21   16   20 2
    22   17   20 2
    23    1   22 1
    24    2   23 1
    25    3   24 1
    26    4   25 1
    27    5   26 1
    28   12   27 1
    29   12   28 1
    30   13   29 1
    31   13   30 1
    32   14   31 1
    33   19   32 1
@<TRIPOS>MOLECULE
*****
   32    33     0     0     0
SMALL
NO_CHARGES

@<TRIPOS>ATOM
      1 C1         -1.4053   -3.8860    4.0772 C.2       1 <0>         0.0000
      2 C2         -1.4092   -2.6800    3.3364 C.2       1 <0>         0.0000
      3 C3          1.8851   -1.0363   -0.1124 C.ar      1 <0>         0.0000
      4 C4          1.7997   -1.0786    2.6757 C.ar      1 <0>         0.0000
      5 C5         -0.8901   -3.5732    5.3135 C.2       1 <0>         0.0000
      6 C6          0.8066   -0.4630    0.5610 C.ar      1 <0>         0.0000
      7 C7          0.7638   -0.4841    1.9551 C.ar      1 <0>         0.0000
      8 C8          2.9210   -1.6309    0.6081 C.ar      1 <0>         0.0000
      9 C9          2.8783   -1.6520    2.0022 C.ar      1 <0>         0.0000
     10 C10        -0.8963   -1.7162    4.1730 C.2       1 <0>         0.0000
     11 C11        -0.2597    0.1505   -0.2205 C.2       1 <0>         0.0000
     12 C12        -0.6343   -0.2470    4.0080 C.3       1 <0>         0.0000
     13 N1          5.3017   -0.9953   -0.4082 N.pl3     1 <0>         0.0000
     14 N2         -0.3194    0.0914    2.6559 N.pl3     1 <0>         0.0000
     15 O1         -1.4439    0.2177    0.1184 O.2       1 <0>         0.0000
     16 O2          4.8710   -3.3532    0.5407 O.2       1 <0>         0.0000
     17 O3          3.7708   -2.6745   -1.6219 O.2       1 <0>         0.0000
     18 O4         -0.5774   -2.2525    5.3802 O.3       1 <0>         0.0000
     19 O5          0.1899    0.6603   -1.3986 O.3       1 <0>         0.0000
     20 S1          4.2498   -2.3351   -0.2914 S.o2      1 <0>         0.0000
     21 Cl1         4.1349   -2.3756    2.9403 Cl        1 <0>         0.0000
     22 H1         -1.7362   -4.8613    3.7507 H         1 <0>         0.0000
     23 H2         -1.7445   -2.5349    2.3193 H         1 <0>         0.0000
     24 H3          1.9175   -1.0191   -1.1997 H         1 <0>         0.0000
     25 H4          1.7615   -1.0924    3.7631 H         1 <0>         0.0000
     26 H5         -0.6923   -4.1463    6.2075 H         1 <0>         0.0000
     27 H6         -1.5114    0.3375    4.3065 H         1 <0>         0.0000
     28 H7          0.2015    0.0762    4.6374 H         1 <0>         0.0000
     29 H8          6.1638   -1.0106    0.1504 H         1 <0>         0.0000
     30 H9          5.4099   -0.5473   -1.3263 H         1 <0>         0.0000
     31 H10        -0.8743    0.7612    2.1595 H         1 <0>         0.0000
     32 H11        -0.5205    1.0766   -1.9319 H         1 <0>         0.0000
@<TRIPOS>BOND
     1    1    2 1
     2    1    5 2
     3    2   10 2
     4    3    6 ar
     5    3    8 ar
     6    4    7 ar
     7    4    9 ar
     8    5   18 1
     9    6    7 ar
    10    6   11 1
    11    7   14 1
    12    8    9 ar
    13    8   20 1
    14    9   21 1
    15   10   12 1
    16   10   18 1
    17   11   15 2
    18   11   19 1
    19   12   14 1
    20   13   20 1
    21   16   20 2
    22   17   20 2
    23    1   22 1
    24    2   23 1
    25    3   24 1
    26    4   25 1
    27    5   26 1
    28   12   27 1
    29   12   28 1
    30   13   29 1
    31   13   30 1
    32   14   31 1
    33   19   32 1
@<TRIPOS>MOLECULE
*****
   32    33     0     0     0
SMALL
NO_CHARGES

@<TRIPOS>ATOM
      1 C1         -1.3287   -2.4582    6.0470 C.2       1 <0>         0.0000
      2 C2         -1.4329   -1.7422    4.8306 C.2       1 <0>         0.0000
      3 C3          1.8851   -1.0363   -0.1124 C.ar      1 <0>         0.0000
      4 C4          1.7997   -1.0786    2.6757 C.ar      1 <0>         0.0000
      5 C5         -0.4286   -1.7650    6.8225 C.2       1 <0>         0.0000
      6 C6          0.8066   -0.4630    0.5610 C.ar      1 <0>         0.0000
      7 C7          0.7638   -0.4841    1.9551 C.ar      1 <0>         0.0000
      8 C8          2.9210   -1.6309    0.6081 C.ar      1 <0>         0.0000
      9 C9          2.8783   -1.6520    2.0022 C.ar      1 <0>         0.0000
     10 C10        -0.5893   -0.6623    4.9496 C.2       1 <0>         0.0000
     11 C11        -0.2597    0.1505   -0.2205 C.2       1 <0>         0.0000
     12 C12        -0.2376    0.4719    4.0308 C.3       1 <0>         0.0000
     13 N1          3.7571   -2.0119   -1.8940 N.pl3     1 <0>         0.0000
     14 N2         -0.3194    0.0914    2.6559 N.pl3     1 <0>         0.0000
     15 O1         -0.9578    1.0989    0.1469 O.2       1 <0>         0.0000
     16 O2          5.4503   -1.5673   -0.0016 O.2       1 <0>         0.0000
     17 O3          4.2353   -3.7732   -0.0757 O.2       1 <0>         0.0000
     18 O4          0.0266   -0.6688    6.1608 O.3       1 <0>         0.0000
     19 O5         -0.4169   -0.4409   -1.4352 O.3       1 <0>         0.0000
     20 S1          4.2498   -2.3351   -0.2914 S.o2      1 <0>         0.0000
     21 Cl1         4.1349   -2.3756    2.9403 Cl        1 <0>         0.0000
     22 H1         -1.8445   -3.3662    6.3238 H         1 <0>         0.0000
     23 H2         -2.0471   -1.9859    3.9755 H         1 <0>         0.0000
     24 H3          1.9175   -1.0191   -1.1997 H         1 <0>         0.0000
     25 H4          1.7615   -1.0924    3.7631 H         1 <0>         0.0000
     26 H5         -0.0273   -1.9127    7.8143 H         1 <0>         0.0000
     27 H6         -0.9140    1.3193    4.1871 H         1 <0>         0.0000
     28 H7          0.7803    0.8291    4.2193 H         1 <0>         0.0000
     29 H8          4.2724   -1.2958   -2.4203 H         1 <0>         0.0000
     30 H9          3.4412   -2.8026   -2.4687 H         1 <0>         0.0000
     31 H10        -1.1691    0.2259    2.1433 H         1 <0>         0.0000
     32 H11        -1.1320   -0.0344   -1.9696 H         1 <0>         0.0000
@<TRIPOS>BOND
     1    1    2 1
     2    1    5 2
     3    2   10 2
     4    3    6 ar
     5    3    8 ar
     6    4    7 ar
     7    4    9 ar
     8    5   18 1
     9    6    7 ar
    10    6   11 1
    11    7   14 1
    12    8    9 ar
    13    8   20 1
    14    9   21 1
    15   10   12 1
    16   10   18 1
    17   11   15 2
    18   11   19 1
    19   12   14 1
    20   13   20 1
    21   16   20 2
    22   17   20 2
    23    1   22 1
    24    2   23 1
    25    3   24 1
    26    4   25 1
    27    5   26 1
    28   12   27 1
    29   12   28 1
    30   13   29 1
    31   13   30 1
    32   14   31 1
    33   19   32 1
@<TRIPOS>MOLECULE
*****
   32    33     0     0     0
SMALL
NO_CHARGES

@<TRIPOS>ATOM
      1 C1          1.3736    3.0819    5.4037 C.2       1 <0>         0.0000
      2 C2          0.3500    2.5765    4.5671 C.2       1 <0>         0.0000
      3 C3          1.8851   -1.0363   -0.1124 C.ar      1 <0>         0.0000
      4 C4          1.7997   -1.0786    2.6757 C.ar      1 <0>         0.0000
      5 C5          1.9719    1.9857    5.9801 C.2       1 <0>         0.0000
      6 C6          0.8066   -0.4630    0.5610 C.ar      1 <0>         0.0000
      7 C7          0.7638   -0.4841    1.9551 C.ar      1 <0>         0.0000
      8 C8          2.9210   -1.6309    0.6081 C.ar      1 <0>         0.0000
      9 C9          2.8783   -1.6520    2.0022 C.ar      1 <0>         0.0000
     10 C10         0.3959    1.2075    4.6917 C.2       1 <0>         0.0000
     11 C11        -0.2597    0.1505   -0.2205 C.2       1 <0>         0.0000
     12 C12        -0.4053    0.0935    4.0823 C.3       1 <0>         0.0000
     13 N1          3.6819   -3.9315   -0.5023 N.pl3     1 <0>         0.0000
     14 N2         -0.3194    0.0914    2.6559 N.pl3     1 <0>         0.0000
     15 O1         -1.4445   -0.1926   -0.2028 O.2       1 <0>         0.0000
     16 O2          4.3156   -1.6812   -1.5886 O.2       1 <0>         0.0000
     17 O3          5.4206   -2.3623    0.5707 O.2       1 <0>         0.0000
     18 O4          1.3819    0.8392    5.5513 O.3       1 <0>         0.0000
     19 O5          0.1902    1.1727   -0.9968 O.3       1 <0>         0.0000
     20 S1          4.2498   -2.3351   -0.2914 S.o2      1 <0>         0.0000
     21 Cl1         4.1349   -2.3756    2.9403 Cl        1 <0>         0.0000
     22 H1          1.6415    4.1158    5.5666 H         1 <0>         0.0000
     23 H2         -0.3346    3.1425    3.9514 H         1 <0>         0.0000
     24 H3          1.9175   -1.0191   -1.1997 H         1 <0>         0.0000
     25 H4          1.7615   -1.0924    3.7631 H         1 <0>         0.0000
     26 H5          2.7859    1.8596    6.6788 H         1 <0>         0.0000
     27 H6         -0.0517   -0.8785    4.4429 H         1 <0>         0.0000
     28 H7         -1.4630    0.1760    4.3538 H         1 <0>         0.0000
     29 H8          3.3857   -4.2160   -1.4440 H         1 <0>         0.0000
     30 H9          4.1398   -4.6794    0.0326 H         1 <0>         0.0000
     31 H10        -1.0445    0.5076    2.1046 H         1 <0>         0.0000
     32 H11        -0.5205    1.5931   -1.5264 H         1 <0>         0.0000
@<TRIPOS>BOND
     1    1    2 1
     2    1    5 2
     3    2   10 2
     4    3    6 ar
     5    3    8 ar
     6    4    7 ar
     7    4    9 ar
     8    5   18 1
     9    6    7 ar
    10    6   11 1
    11    7   14 1
    12    8    9 ar
    13    8   20 1
    14    9   21 1
    15   10   12 1
    16   10   18 1
    17   11   15 2
    18   11   19 1
    19   12   14 1
    20   13   20 1
    21   16   20 2
    22   17   20 2
    23    1   22 1
    24    2   23 1
    25    3   24 1
    26    4   25 1
    27    5   26 1
    28   12   27 1
    29   12   28 1
    30   13   29 1
    31   13   30 1
    32   14   31 1
    33   19   32 1
@<TRIPOS>MOLECULE
*****
   32    33     0     0     0
SMALL
NO_CHARGES

@<TRIPOS>ATOM
      1 C1          1.3736    3.0819    5.4037 C.2       1 <0>         0.0000
      2 C2          0.3500    2.5765    4.5671 C.2       1 <0>         0.0000
      3 C3          1.8851   -1.0363   -0.1124 C.ar      1 <0>         0.0000
      4 C4          1.7997   -1.0786    2.6757 C.ar      1 <0>         0.0000
      5 C5          1.9719    1.9857    5.9801 C.2       1 <0>         0.0000
      6 C6          0.8066   -0.4630    0.5610 C.ar      1 <0>         0.0000
      7 C7          0.7638   -0.4841    1.9551 C.ar      1 <0>         0.0000
      8 C8          2.9210   -1.6309    0.6081 C.ar      1 <0>         0.0000
      9 C9          2.8783   -1.6520    2.0022 C.ar      1 <0>         0.0000
     10 C10         0.3959    1.2075    4.6917 C.2       1 <0>         0.0000
     11 C11        -0.2597    0.1505   -0.2205 C.2       1 <0>         0.0000
     12 C12        -0.4053    0.0935    4.0823 C.3       1 <0>         0.0000
     13 N1          5.3017   -0.9953   -0.4082 N.pl3     1 <0>         0.0000
     14 N2         -0.3194    0.0914    2.6559 N.pl3     1 <0>         0.0000
     15 O1         -1.4445   -0.1926   -0.2028 O.2       1 <0>         0.0000
     16 O2          4.8710   -3.3532    0.5407 O.2       1 <0>         0.0000
     17 O3          3.7708   -2.6745   -1.6219 O.2       1 <0>         0.0000
     18 O4          1.3819    0.8392    5.5513 O.3       1 <0>         0.0000
     19 O5          0.1902    1.1727   -0.9968 O.3       1 <0>         0.0000
     20 S1          4.2498   -2.3351   -0.2914 S.o2      1 <0>         0.0000
     21 Cl1         4.1349   -2.3756    2.9403 Cl        1 <0>         0.0000
     22 H1          1.6415    4.1158    5.5666 H         1 <0>         0.0000
     23 H2         -0.3346    3.1425    3.9514 H         1 <0>         0.0000
     24 H3          1.9175   -1.0191   -1.1997 H         1 <0>         0.0000
     25 H4          1.7615   -1.0924    3.7631 H         1 <0>         0.0000
     26 H5          2.7859    1.8596    6.6788 H         1 <0>         0.0000
     27 H6         -0.0517   -0.8785    4.4429 H         1 <0>         0.0000
     28 H7         -1.4630    0.1760    4.3538 H         1 <0>         0.0000
     29 H8          6.1638   -1.0106    0.1504 H         1 <0>         0.0000
     30 H9          5.4099   -0.5473   -1.3263 H         1 <0>         0.0000
     31 H10        -1.0445    0.5076    2.1046 H         1 <0>         0.0000
     32 H11        -0.5205    1.5931   -1.5264 H         1 <0>         0.0000
@<TRIPOS>BOND
     1    1    2 1
     2    1    5 2
     3    2   10 2
     4    3    6 ar
     5    3    8 ar
     6    4    7 ar
     7    4    9 ar
     8    5   18 1
     9    6    7 ar
    10    6   11 1
    11    7   14 1
    12    8    9 ar
    13    8   20 1
    14    9   21 1
    15   10   12 1
    16   10   18 1
    17   11   15 2
    18   11   19 1
    19   12   14 1
    20   13   20 1
    21   16   20 2
    22   17   20 2
    23    1   22 1
    24    2   23 1
    25    3   24 1
    26    4   25 1
    27    5   26 1
    28   12   27 1
    29   12   28 1
    30   13   29 1
    31   13   30 1
    32   14   31 1
    33   19   32 1
@<TRIPOS>MOLECULE
*****
   32    33     0     0     0
SMALL
NO_CHARGES

@<TRIPOS>ATOM
      1 C1          1.7678    2.5996    5.7670 C.2       1 <0>         0.0000
      2 C2          1.4458    1.2342    5.5800 C.2       1 <0>         0.0000
      3 C3          1.8851   -1.0363   -0.1124 C.ar      1 <0>         0.0000
      4 C4          1.7997   -1.0786    2.6757 C.ar      1 <0>         0.0000
      5 C5          0.8920    3.3100    4.9794 C.2       1 <0>         0.0000
      6 C6          0.8066   -0.4630    0.5610 C.ar      1 <0>         0.0000
      7 C7          0.7638   -0.4841    1.9551 C.ar      1 <0>         0.0000
      8 C8          2.9210   -1.6309    0.6081 C.ar      1 <0>         0.0000
      9 C9          2.8783   -1.6520    2.0022 C.ar      1 <0>         0.0000
     10 C10         0.3959    1.2075    4.6917 C.2       1 <0>         0.0000
     11 C11        -0.2597    0.1505   -0.2205 C.2       1 <0>         0.0000
     12 C12        -0.4053    0.0935    4.0823 C.3       1 <0>         0.0000
     13 N1          3.6819   -3.9315   -0.5023 N.pl3     1 <0>         0.0000
     14 N2         -0.3194    0.0914    2.6559 N.pl3     1 <0>         0.0000
     15 O1         -1.4445   -0.1926   -0.2028 O.2       1 <0>         0.0000
     16 O2          4.3156   -1.6812   -1.5886 O.2       1 <0>         0.0000
     17 O3          5.4206   -2.3623    0.5707 O.2       1 <0>         0.0000
     18 O4          0.0523    2.4688    4.3208 O.3       1 <0>         0.0000
     19 O5          0.1902    1.1727   -0.9968 O.3       1 <0>         0.0000
     20 S1          4.2498   -2.3351   -0.2914 S.o2      1 <0>         0.0000
     21 Cl1         4.1349   -2.3756    2.9403 Cl        1 <0>         0.0000
     22 H1          2.5417    3.0142    6.3966 H         1 <0>         0.0000
     23 H2          1.9219    0.3784    6.0371 H         1 <0>         0.0000
     24 H3          1.9175   -1.0191   -1.1997 H         1 <0>         0.0000
     25 H4          1.7615   -1.0924    3.7631 H         1 <0>         0.0000
     26 H5          0.7445    4.3627    4.7877 H         1 <0>         0.0000
     27 H6         -0.0517   -0.8785    4.4429 H         1 <0>         0.0000
     28 H7         -1.4630    0.1760    4.3538 H         1 <0>         0.0000
     29 H8          3.3857   -4.2160   -1.4440 H         1 <0>         0.0000
     30 H9          4.1398   -4.6794    0.0326 H         1 <0>         0.0000
     31 H10        -1.0445    0.5076    2.1046 H         1 <0>         0.0000
     32 H11        -0.5205    1.5931   -1.5264 H         1 <0>         0.0000
@<TRIPOS>BOND
     1    1    2 1
     2    1    5 2
     3    2   10 2
     4    3    6 ar
     5    3    8 ar
     6    4    7 ar
     7    4    9 ar
     8    5   18 1
     9    6    7 ar
    10    6   11 1
    11    7   14 1
    12    8    9 ar
    13    8   20 1
    14    9   21 1
    15   10   12 1
    16   10   18 1
    17   11   15 2
    18   11   19 1
    19   12   14 1
    20   13   20 1
    21   16   20 2
    22   17   20 2
    23    1   22 1
    24    2   23 1
    25    3   24 1
    26    4   25 1
    27    5   26 1
    28   12   27 1
    29   12   28 1
    30   13   29 1
    31   13   30 1
    32   14   31 1
    33   19   32 1
@<TRIPOS>MOLECULE
*****
   32    33     0     0     0
SMALL
NO_CHARGES

@<TRIPOS>ATOM
      1 C1         -0.8815   -2.1924    6.5464 C.2       1 <0>         0.0000
      2 C2         -0.1865   -1.0035    6.2197 C.2       1 <0>         0.0000
      3 C3          1.8851   -1.0363   -0.1124 C.ar      1 <0>         0.0000
      4 C4          1.7997   -1.0786    2.6757 C.ar      1 <0>         0.0000
      5 C5         -1.6597   -2.4928    5.4527 C.2       1 <0>         0.0000
      6 C6          0.8066   -0.4630    0.5610 C.ar      1 <0>         0.0000
      7 C7          0.7638   -0.4841    1.9551 C.ar      1 <0>         0.0000
      8 C8          2.9210   -1.6309    0.6081 C.ar      1 <0>         0.0000
      9 C9          2.8783   -1.6520    2.0022 C.ar      1 <0>         0.0000
     10 C10        -0.5893   -0.6623    4.9496 C.2       1 <0>         0.0000
     11 C11        -0.2597    0.1505   -0.2205 C.2       1 <0>         0.0000
     12 C12        -0.2376    0.4719    4.0308 C.3       1 <0>         0.0000
     13 N1          3.6819   -3.9315   -0.5023 N.pl3     1 <0>         0.0000
     14 N2         -0.3194    0.0914    2.6559 N.pl3     1 <0>         0.0000
     15 O1         -0.9578    1.0989    0.1469 O.2       1 <0>         0.0000
     16 O2          4.3156   -1.6812   -1.5886 O.2       1 <0>         0.0000
     17 O3          5.4206   -2.3623    0.5707 O.2       1 <0>         0.0000
     18 O4         -1.4873   -1.5650    4.4749 O.3       1 <0>         0.0000
     19 O5         -0.4169   -0.4409   -1.4352 O.3       1 <0>         0.0000
     20 S1          4.2498   -2.3351   -0.2914 S.o2      1 <0>         0.0000
     21 Cl1         4.1349   -2.3756    2.9403 Cl        1 <0>         0.0000
     22 H1         -0.8230   -2.7592    7.4643 H         1 <0>         0.0000
     23 H2          0.5192   -0.4647    6.8359 H         1 <0>         0.0000
     24 H3          1.9175   -1.0191   -1.1997 H         1 <0>         0.0000
     25 H4          1.7615   -1.0924    3.7631 H         1 <0>         0.0000
     26 H5         -2.3536   -3.2885    5.2252 H         1 <0>         0.0000
     27 H6         -0.9140    1.3193    4.1871 H         1 <0>         0.0000
     28 H7          0.7803    0.8291    4.2193 H         1 <0>         0.0000
     29 H8          3.3857   -4.2160   -1.4440 H         1 <0>         0.0000
     30 H9          4.1398   -4.6794    0.0326 H         1 <0>         0.0000
     31 H10        -1.1691    0.2259    2.1433 H         1 <0>         0.0000
     32 H11        -1.1320   -0.0344   -1.9696 H         1 <0>         0.0000
@<TRIPOS>BOND
     1    1    2 1
     2    1    5 2
     3    2   10 2
     4    3    6 ar
     5    3    8 ar
     6    4    7 ar
     7    4    9 ar
     8    5   18 1
     9    6    7 ar
    10    6   11 1
    11    7   14 1
    12    8    9 ar
    13    8   20 1
    14    9   21 1
    15   10   12 1
    16   10   18 1
    17   11   15 2
    18   11   19 1
    19   12   14 1
    20   13   20 1
    21   16   20 2
    22   17   20 2
    23    1   22 1
    24    2   23 1
    25    3   24 1
    26    4   25 1
    27    5   26 1
    28   12   27 1
    29   12   28 1
    30   13   29 1
    31   13   30 1
    32   14   31 1
    33   19   32 1
@<TRIPOS>MOLECULE
*****
   32    33     0     0     0
SMALL
NO_CHARGES

@<TRIPOS>ATOM
      1 C1         -1.4053   -3.8860    4.0772 C.2       1 <0>         0.0000
      2 C2         -1.4092   -2.6800    3.3364 C.2       1 <0>         0.0000
      3 C3          1.8851   -1.0363   -0.1124 C.ar      1 <0>         0.0000
      4 C4          1.7997   -1.0786    2.6757 C.ar      1 <0>         0.0000
      5 C5         -0.8901   -3.5732    5.3135 C.2       1 <0>         0.0000
      6 C6          0.8066   -0.4630    0.5610 C.ar      1 <0>         0.0000
      7 C7          0.7638   -0.4841    1.9551 C.ar      1 <0>         0.0000
      8 C8          2.9210   -1.6309    0.6081 C.ar      1 <0>         0.0000
      9 C9          2.8783   -1.6520    2.0022 C.ar      1 <0>         0.0000
     10 C10        -0.8963   -1.7162    4.1730 C.2       1 <0>         0.0000
     11 C11        -0.2597    0.1505   -0.2205 C.2       1 <0>         0.0000
     12 C12        -0.6343   -0.2470    4.0080 C.3       1 <0>         0.0000
     13 N1          3.7571   -2.0119   -1.8940 N.pl3     1 <0>         0.0000
     14 N2         -0.3194    0.0914    2.6559 N.pl3     1 <0>         0.0000
     15 O1         -1.4439    0.2177    0.1184 O.2       1 <0>         0.0000
     16 O2          5.4503   -1.5673   -0.0016 O.2       1 <0>         0.0000
     17 O3          4.2353   -3.7732   -0.0757 O.2       1 <0>         0.0000
     18 O4         -0.5774   -2.2525    5.3802 O.3       1 <0>         0.0000
     19 O5          0.1899    0.6603   -1.3986 O.3       1 <0>         0.0000
     20 S1          4.2498   -2.3351   -0.2914 S.o2      1 <0>         0.0000
     21 Cl1         4.1349   -2.3756    2.9403 Cl        1 <0>         0.0000
     22 H1         -1.7362   -4.8613    3.7507 H         1 <0>         0.0000
     23 H2         -1.7445   -2.5349    2.3193 H         1 <0>         0.0000
     24 H3          1.9175   -1.0191   -1.1997 H         1 <0>         0.0000
     25 H4          1.7615   -1.0924    3.7631 H         1 <0>         0.0000
     26 H5         -0.6923   -4.1463    6.2075 H         1 <0>         0.0000
     27 H6         -1.5114    0.3375    4.3065 H         1 <0>         0.0000
     28 H7          0.2015    0.0762    4.6374 H         1 <0>         0.0000
     29 H8          4.2724   -1.2958   -2.4203 H         1 <0>         0.0000
     30 H9          3.4412   -2.8026   -2.4687 H         1 <0>         0.0000
     31 H10        -0.8743    0.7612    2.1595 H         1 <0>         0.0000
     32 H11        -0.5205    1.0766   -1.9319 H         1 <0>         0.0000
@<TRIPOS>BOND
     1    1    2 1
     2    1    5 2
     3    2   10 2
     4    3    6 ar
     5    3    8 ar
     6    4    7 ar
     7    4    9 ar
     8    5   18 1
     9    6    7 ar
    10    6   11 1
    11    7   14 1
    12    8    9 ar
    13    8   20 1
    14    9   21 1
    15   10   12 1
    16   10   18 1
    17   11   15 2
    18   11   19 1
    19   12   14 1
    20   13   20 1
    21   16   20 2
    22   17   20 2
    23    1   22 1
    24    2   23 1
    25    3   24 1
    26    4   25 1
    27    5   26 1
    28   12   27 1
    29   12   28 1
    30   13   29 1
    31   13   30 1
    32   14   31 1
    33   19   32 1
@<TRIPOS>MOLECULE
*****
   32    33     0     0     0
SMALL
NO_CHARGES

@<TRIPOS>ATOM
      1 C1          1.7678    2.5996    5.7670 C.2       1 <0>         0.0000
      2 C2          1.4458    1.2342    5.5800 C.2       1 <0>         0.0000
      3 C3          1.8851   -1.0363   -0.1124 C.ar      1 <0>         0.0000
      4 C4          1.7997   -1.0786    2.6757 C.ar      1 <0>         0.0000
      5 C5          0.8920    3.3100    4.9794 C.2       1 <0>         0.0000
      6 C6          0.8066   -0.4630    0.5610 C.ar      1 <0>         0.0000
      7 C7          0.7638   -0.4841    1.9551 C.ar      1 <0>         0.0000
      8 C8          2.9210   -1.6309    0.6081 C.ar      1 <0>         0.0000
      9 C9          2.8783   -1.6520    2.0022 C.ar      1 <0>         0.0000
     10 C10         0.3959    1.2075    4.6917 C.2       1 <0>         0.0000
     11 C11        -0.2597    0.1505   -0.2205 C.2       1 <0>         0.0000
     12 C12        -0.4053    0.0935    4.0823 C.3       1 <0>         0.0000
     13 N1          5.3017   -0.9953   -0.4082 N.pl3     1 <0>         0.0000
     14 N2         -0.3194    0.0914    2.6559 N.pl3     1 <0>         0.0000
     15 O1         -1.4445   -0.1926   -0.2028 O.2       1 <0>         0.0000
     16 O2          4.8710   -3.3532    0.5407 O.2       1 <0>         0.0000
     17 O3          3.7708   -2.6745   -1.6219 O.2       1 <0>         0.0000
     18 O4          0.0523    2.4688    4.3208 O.3       1 <0>         0.0000
     19 O5          0.1902    1.1727   -0.9968 O.3       1 <0>         0.0000
     20 S1          4.2498   -2.3351   -0.2914 S.o2      1 <0>         0.0000
     21 Cl1         4.1349   -2.3756    2.9403 Cl        1 <0>         0.0000
     22 H1          2.5417    3.0142    6.3966 H         1 <0>         0.0000
     23 H2          1.9219    0.3784    6.0371 H         1 <0>         0.0000
     24 H3          1.9175   -1.0191   -1.1997 H         1 <0>         0.0000
     25 H4          1.7615   -1.0924    3.7631 H         1 <0>         0.0000
     26 H5          0.7445    4.3627    4.7877 H         1 <0>         0.0000
     27 H6         -0.0517   -0.8785    4.4429 H         1 <0>         0.0000
     28 H7         -1.4630    0.1760    4.3538 H         1 <0>         0.0000
     29 H8          6.1638   -1.0106    0.1504 H         1 <0>         0.0000
     30 H9          5.4099   -0.5473   -1.3263 H         1 <0>         0.0000
     31 H10        -1.0445    0.5076    2.1046 H         1 <0>         0.0000
     32 H11        -0.5205    1.5931   -1.5264 H         1 <0>         0.0000
@<TRIPOS>BOND
     1    1    2 1
     2    1    5 2
     3    2   10 2
     4    3    6 ar
     5    3    8 ar
     6    4    7 ar
     7    4    9 ar
     8    5   18 1
     9    6    7 ar
    10    6   11 1
    11    7   14 1
    12    8    9 ar
    13    8   20 1
    14    9   21 1
    15   10   12 1
    16   10   18 1
    17   11   15 2
    18   11   19 1
    19   12   14 1
    20   13   20 1
    21   16   20 2
    22   17   20 2
    23    1   22 1
    24    2   23 1
    25    3   24 1
    26    4   25 1
    27    5   26 1
    28   12   27 1
    29   12   28 1
    30   13   29 1
    31   13   30 1
    32   14   31 1
    33   19   32 1
@<TRIPOS>MOLECULE
*****
   32    33     0     0     0
SMALL
NO_CHARGES

@<TRIPOS>ATOM
      1 C1         -0.8815   -2.1924    6.5464 C.2       1 <0>         0.0000
      2 C2         -0.1865   -1.0035    6.2197 C.2       1 <0>         0.0000
      3 C3          1.8851   -1.0363   -0.1124 C.ar      1 <0>         0.0000
      4 C4          1.7997   -1.0786    2.6757 C.ar      1 <0>         0.0000
      5 C5         -1.6597   -2.4928    5.4527 C.2       1 <0>         0.0000
      6 C6          0.8066   -0.4630    0.5610 C.ar      1 <0>         0.0000
      7 C7          0.7638   -0.4841    1.9551 C.ar      1 <0>         0.0000
      8 C8          2.9210   -1.6309    0.6081 C.ar      1 <0>         0.0000
      9 C9          2.8783   -1.6520    2.0022 C.ar      1 <0>         0.0000
     10 C10        -0.5893   -0.6623    4.9496 C.2       1 <0>         0.0000
     11 C11        -0.2597    0.1505   -0.2205 C.2       1 <0>         0.0000
     12 C12        -0.2376    0.4719    4.0308 C.3       1 <0>         0.0000
     13 N1          5.3017   -0.9953   -0.4082 N.pl3     1 <0>         0.0000
     14 N2         -0.3194    0.0914    2.6559 N.pl3     1 <0>         0.0000
     15 O1         -0.9578    1.0989    0.1469 O.2       1 <0>         0.0000
     16 O2          4.8710   -3.3532    0.5407 O.2       1 <0>         0.0000
     17 O3          3.7708   -2.6745   -1.6219 O.2       1 <0>         0.0000
     18 O4         -1.4873   -1.5650    4.4749 O.3       1 <0>         0.0000
     19 O5         -0.4169   -0.4409   -1.4352 O.3       1 <0>         0.0000
     20 S1          4.2498   -2.3351   -0.2914 S.o2      1 <0>         0.0000
     21 Cl1         4.1349   -2.3756    2.9403 Cl        1 <0>         0.0000
     22 H1         -0.8230   -2.7592    7.4643 H         1 <0>         0.0000
     23 H2          0.5192   -0.4647    6.8359 H         1 <0>         0.0000
     24 H3          1.9175   -1.0191   -1.1997 H         1 <0>         0.0000
     25 H4          1.7615   -1.0924    3.7631 H         1 <0>         0.0000
     26 H5         -2.3536   -3.2885    5.2252 H         1 <0>         0.0000
     27 H6         -0.9140    1.3193    4.1871 H         1 <0>         0.0000
     28 H7          0.7803    0.8291    4.2193 H         1 <0>         0.0000
     29 H8          6.1638   -1.0106    0.1504 H         1 <0>         0.0000
     30 H9          5.4099   -0.5473   -1.3263 H         1 <0>         0.0000
     31 H10        -1.1691    0.2259    2.1433 H         1 <0>         0.0000
     32 H11        -1.1320   -0.0344   -1.9696 H         1 <0>         0.0000
@<TRIPOS>BOND
     1    1    2 1
     2    1    5 2
     3    2   10 2
     4    3    6 ar
     5    3    8 ar
     6    4    7 ar
     7    4    9 ar
     8    5   18 1
     9    6    7 ar
    10    6   11 1
    11    7   14 1
    12    8    9 ar
    13    8   20 1
    14    9   21 1
    15   10   12 1
    16   10   18 1
    17   11   15 2
    18   11   19 1
    19   12   14 1
    20   13   20 1
    21   16   20 2
    22   17   20 2
    23    1   22 1
    24    2   23 1
    25    3   24 1
    26    4   25 1
    27    5   26 1
    28   12   27 1
    29   12   28 1
    30   13   29 1
    31   13   30 1
    32   14   31 1
    33   19   32 1
@<TRIPOS>MOLECULE
*****
   32    33     0     0     0
SMALL
NO_CHARGES

@<TRIPOS>ATOM
      1 C1          1.3736    3.0819    5.4037 C.2       1 <0>         0.0000
      2 C2          0.3500    2.5765    4.5671 C.2       1 <0>         0.0000
      3 C3          1.8851   -1.0363   -0.1124 C.ar      1 <0>         0.0000
      4 C4          1.7997   -1.0786    2.6757 C.ar      1 <0>         0.0000
      5 C5          1.9719    1.9857    5.9801 C.2       1 <0>         0.0000
      6 C6          0.8066   -0.4630    0.5610 C.ar      1 <0>         0.0000
      7 C7          0.7638   -0.4841    1.9551 C.ar      1 <0>         0.0000
      8 C8          2.9210   -1.6309    0.6081 C.ar      1 <0>         0.0000
      9 C9          2.8783   -1.6520    2.0022 C.ar      1 <0>         0.0000
     10 C10         0.3959    1.2075    4.6917 C.2       1 <0>         0.0000
     11 C11        -0.2597    0.1505   -0.2205 C.2       1 <0>         0.0000
     12 C12        -0.4053    0.0935    4.0823 C.3       1 <0>         0.0000
     13 N1          3.7571   -2.0119   -1.8940 N.pl3     1 <0>         0.0000
     14 N2         -0.3194    0.0914    2.6559 N.pl3     1 <0>         0.0000
     15 O1         -1.4445   -0.1926   -0.2028 O.2       1 <0>         0.0000
     16 O2          5.4503   -1.5673   -0.0016 O.2       1 <0>         0.0000
     17 O3          4.2353   -3.7732   -0.0757 O.2       1 <0>         0.0000
     18 O4          1.3819    0.8392    5.5513 O.3       1 <0>         0.0000
     19 O5          0.1902    1.1727   -0.9968 O.3       1 <0>         0.0000
     20 S1          4.2498   -2.3351   -0.2914 S.o2      1 <0>         0.0000
     21 Cl1         4.1349   -2.3756    2.9403 Cl        1 <0>         0.0000
     22 H1          1.6415    4.1158    5.5666 H         1 <0>         0.0000
     23 H2         -0.3346    3.1425    3.9514 H         1 <0>         0.0000
     24 H3          1.9175   -1.0191   -1.1997 H         1 <0>         0.0000
     25 H4          1.7615   -1.0924    3.7631 H         1 <0>         0.0000
     26 H5          2.7859    1.8596    6.6788 H         1 <0>         0.0000
     27 H6         -0.0517   -0.8785    4.4429 H         1 <0>         0.0000
     28 H7         -1.4630    0.1760    4.3538 H         1 <0>         0.0000
     29 H8          4.2724   -1.2958   -2.4203 H         1 <0>         0.0000
     30 H9          3.4412   -2.8026   -2.4687 H         1 <0>         0.0000
     31 H10        -1.0445    0.5076    2.1046 H         1 <0>         0.0000
     32 H11        -0.5205    1.5931   -1.5264 H         1 <0>         0.0000
@<TRIPOS>BOND
     1    1    2 1
     2    1    5 2
     3    2   10 2
     4    3    6 ar
     5    3    8 ar
     6    4    7 ar
     7    4    9 ar
     8    5   18 1
     9    6    7 ar
    10    6   11 1
    11    7   14 1
    12    8    9 ar
    13    8   20 1
    14    9   21 1
    15   10   12 1
    16   10   18 1
    17   11   15 2
    18   11   19 1
    19   12   14 1
    20   13   20 1
    21   16   20 2
    22   17   20 2
    23    1   22 1
    24    2   23 1
    25    3   24 1
    26    4   25 1
    27    5   26 1
    28   12   27 1
    29   12   28 1
    30   13   29 1
    31   13   30 1
    32   14   31 1
    33   19   32 1
@<TRIPOS>MOLECULE
*****
   32    33     0     0     0
SMALL
NO_CHARGES

@<TRIPOS>ATOM
      1 C1         -1.1555   -3.8546    4.7529 C.2       1 <0>         0.0000
      2 C2         -0.7116   -2.5932    5.2165 C.2       1 <0>         0.0000
      3 C3          1.8851   -1.0363   -0.1124 C.ar      1 <0>         0.0000
      4 C4          1.7997   -1.0786    2.6757 C.ar      1 <0>         0.0000
      5 C5         -1.5800   -3.6585    3.4593 C.2       1 <0>         0.0000
      6 C6          0.8066   -0.4630    0.5610 C.ar      1 <0>         0.0000
      7 C7          0.7638   -0.4841    1.9551 C.ar      1 <0>         0.0000
      8 C8          2.9210   -1.6309    0.6081 C.ar      1 <0>         0.0000
      9 C9          2.8783   -1.6520    2.0022 C.ar      1 <0>         0.0000
     10 C10        -0.8963   -1.7162    4.1730 C.2       1 <0>         0.0000
     11 C11        -0.2597    0.1505   -0.2205 C.2       1 <0>         0.0000
     12 C12        -0.6343   -0.2470    4.0080 C.3       1 <0>         0.0000
     13 N1          3.6819   -3.9315   -0.5023 N.pl3     1 <0>         0.0000
     14 N2         -0.3194    0.0914    2.6559 N.pl3     1 <0>         0.0000
     15 O1         -1.4439    0.2177    0.1184 O.2       1 <0>         0.0000
     16 O2          4.3156   -1.6812   -1.5886 O.2       1 <0>         0.0000
     17 O3          5.4206   -2.3623    0.5707 O.2       1 <0>         0.0000
     18 O4         -1.4252   -2.3577    3.0982 O.3       1 <0>         0.0000
     19 O5          0.1899    0.6603   -1.3986 O.3       1 <0>         0.0000
     20 S1          4.2498   -2.3351   -0.2914 S.o2      1 <0>         0.0000
     21 Cl1         4.1349   -2.3756    2.9403 Cl        1 <0>         0.0000
     22 H1         -1.1653   -4.7897    5.2939 H         1 <0>         0.0000
     23 H2         -0.3082   -2.3561    6.1906 H         1 <0>         0.0000
     24 H3          1.9175   -1.0191   -1.1997 H         1 <0>         0.0000
     25 H4          1.7615   -1.0924    3.7631 H         1 <0>         0.0000
     26 H5         -1.9958   -4.3075    2.7027 H         1 <0>         0.0000
     27 H6         -1.5114    0.3375    4.3065 H         1 <0>         0.0000
     28 H7          0.2015    0.0762    4.6374 H         1 <0>         0.0000
     29 H8          3.3857   -4.2160   -1.4440 H         1 <0>         0.0000
     30 H9          4.1398   -4.6794    0.0326 H         1 <0>         0.0000
     31 H10        -0.8743    0.7612    2.1595 H         1 <0>         0.0000
     32 H11        -0.5205    1.0766   -1.9319 H         1 <0>         0.0000
@<TRIPOS>BOND
     1    1    2 1
     2    1    5 2
     3    2   10 2
     4    3    6 ar
     5    3    8 ar
     6    4    7 ar
     7    4    9 ar
     8    5   18 1
     9    6    7 ar
    10    6   11 1
    11    7   14 1
    12    8    9 ar
    13    8   20 1
    14    9   21 1
    15   10   12 1
    16   10   18 1
    17   11   15 2
    18   11   19 1
    19   12   14 1
    20   13   20 1
    21   16   20 2
    22   17   20 2
    23    1   22 1
    24    2   23 1
    25    3   24 1
    26    4   25 1
    27    5   26 1
    28   12   27 1
    29   12   28 1
    30   13   29 1
    31   13   30 1
    32   14   31 1
    33   19   32 1
@<TRIPOS>MOLECULE
*****
   32    33     0     0     0
SMALL
NO_CHARGES

@<TRIPOS>ATOM
      1 C1         -1.1555   -3.8546    4.7529 C.2       1 <0>         0.0000
      2 C2         -0.7116   -2.5932    5.2165 C.2       1 <0>         0.0000
      3 C3          1.8851   -1.0363   -0.1124 C.ar      1 <0>         0.0000
      4 C4          1.7997   -1.0786    2.6757 C.ar      1 <0>         0.0000
      5 C5         -1.5800   -3.6585    3.4593 C.2       1 <0>         0.0000
      6 C6          0.8066   -0.4630    0.5610 C.ar      1 <0>         0.0000
      7 C7          0.7638   -0.4841    1.9551 C.ar      1 <0>         0.0000
      8 C8          2.9210   -1.6309    0.6081 C.ar      1 <0>         0.0000
      9 C9          2.8783   -1.6520    2.0022 C.ar      1 <0>         0.0000
     10 C10        -0.8963   -1.7162    4.1730 C.2       1 <0>         0.0000
     11 C11        -0.2597    0.1505   -0.2205 C.2       1 <0>         0.0000
     12 C12        -0.6343   -0.2470    4.0080 C.3       1 <0>         0.0000
     13 N1          5.3017   -0.9953   -0.4082 N.pl3     1 <0>         0.0000
     14 N2         -0.3194    0.0914    2.6559 N.pl3     1 <0>         0.0000
     15 O1         -1.4439    0.2177    0.1184 O.2       1 <0>         0.0000
     16 O2          4.8710   -3.3532    0.5407 O.2       1 <0>         0.0000
     17 O3          3.7708   -2.6745   -1.6219 O.2       1 <0>         0.0000
     18 O4         -1.4252   -2.3577    3.0982 O.3       1 <0>         0.0000
     19 O5          0.1899    0.6603   -1.3986 O.3       1 <0>         0.0000
     20 S1          4.2498   -2.3351   -0.2914 S.o2      1 <0>         0.0000
     21 Cl1         4.1349   -2.3756    2.9403 Cl        1 <0>         0.0000
     22 H1         -1.1653   -4.7897    5.2939 H         1 <0>         0.0000
     23 H2         -0.3082   -2.3561    6.1906 H         1 <0>         0.0000
     24 H3          1.9175   -1.0191   -1.1997 H         1 <0>         0.0000
     25 H4          1.7615   -1.0924    3.7631 H         1 <0>         0.0000
     26 H5         -1.9958   -4.3075    2.7027 H         1 <0>         0.0000
     27 H6         -1.5114    0.3375    4.3065 H         1 <0>         0.0000
     28 H7          0.2015    0.0762    4.6374 H         1 <0>         0.0000
     29 H8          6.1638   -1.0106    0.1504 H         1 <0>         0.0000
     30 H9          5.4099   -0.5473   -1.3263 H         1 <0>         0.0000
     31 H10        -0.8743    0.7612    2.1595 H         1 <0>         0.0000
     32 H11        -0.5205    1.0766   -1.9319 H         1 <0>         0.0000
@<TRIPOS>BOND
     1    1    2 1
     2    1    5 2
     3    2   10 2
     4    3    6 ar
     5    3    8 ar
     6    4    7 ar
     7    4    9 ar
     8    5   18 1
     9    6    7 ar
    10    6   11 1
    11    7   14 1
    12    8    9 ar
    13    8   20 1
    14    9   21 1
    15   10   12 1
    16   10   18 1
    17   11   15 2
    18   11   19 1
    19   12   14 1
    20   13   20 1
    21   16   20 2
    22   17   20 2
    23    1   22 1
    24    2   23 1
    25    3   24 1
    26    4   25 1
    27    5   26 1
    28   12   27 1
    29   12   28 1
    30   13   29 1
    31   13   30 1
    32   14   31 1
    33   19   32 1
@<TRIPOS>MOLECULE
*****
   32    33     0     0     0
SMALL
NO_CHARGES

@<TRIPOS>ATOM
      1 C1          1.7678    2.5996    5.7670 C.2       1 <0>         0.0000
      2 C2          1.4458    1.2342    5.5800 C.2       1 <0>         0.0000
      3 C3          1.8851   -1.0363   -0.1124 C.ar      1 <0>         0.0000
      4 C4          1.7997   -1.0786    2.6757 C.ar      1 <0>         0.0000
      5 C5          0.8920    3.3100    4.9794 C.2       1 <0>         0.0000
      6 C6          0.8066   -0.4630    0.5610 C.ar      1 <0>         0.0000
      7 C7          0.7638   -0.4841    1.9551 C.ar      1 <0>         0.0000
      8 C8          2.9210   -1.6309    0.6081 C.ar      1 <0>         0.0000
      9 C9          2.8783   -1.6520    2.0022 C.ar      1 <0>         0.0000
     10 C10         0.3959    1.2075    4.6917 C.2       1 <0>         0.0000
     11 C11        -0.2597    0.1505   -0.2205 C.2       1 <0>         0.0000
     12 C12        -0.4053    0.0935    4.0823 C.3       1 <0>         0.0000
     13 N1          3.7571   -2.0119   -1.8940 N.pl3     1 <0>         0.0000
     14 N2         -0.3194    0.0914    2.6559 N.pl3     1 <0>         0.0000
     15 O1         -1.4445   -0.1926   -0.2028 O.2       1 <0>         0.0000
     16 O2          5.4503   -1.5673   -0.0016 O.2       1 <0>         0.0000
     17 O3          4.2353   -3.7732   -0.0757 O.2       1 <0>         0.0000
     18 O4          0.0523    2.4688    4.3208 O.3       1 <0>         0.0000
     19 O5          0.1902    1.1727   -0.9968 O.3       1 <0>         0.0000
     20 S1          4.2498   -2.3351   -0.2914 S.o2      1 <0>         0.0000
     21 Cl1         4.1349   -2.3756    2.9403 Cl        1 <0>         0.0000
     22 H1          2.5417    3.0142    6.3966 H         1 <0>         0.0000
     23 H2          1.9219    0.3784    6.0371 H         1 <0>         0.0000
     24 H3          1.9175   -1.0191   -1.1997 H         1 <0>         0.0000
     25 H4          1.7615   -1.0924    3.7631 H         1 <0>         0.0000
     26 H5          0.7445    4.3627    4.7877 H         1 <0>         0.0000
     27 H6         -0.0517   -0.8785    4.4429 H         1 <0>         0.0000
     28 H7         -1.4630    0.1760    4.3538 H         1 <0>         0.0000
     29 H8          4.2724   -1.2958   -2.4203 H         1 <0>         0.0000
     30 H9          3.4412   -2.8026   -2.4687 H         1 <0>         0.0000
     31 H10        -1.0445    0.5076    2.1046 H         1 <0>         0.0000
     32 H11        -0.5205    1.5931   -1.5264 H         1 <0>         0.0000
@<TRIPOS>BOND
     1    1    2 1
     2    1    5 2
     3    2   10 2
     4    3    6 ar
     5    3    8 ar
     6    4    7 ar
     7    4    9 ar
     8    5   18 1
     9    6    7 ar
    10    6   11 1
    11    7   14 1
    12    8    9 ar
    13    8   20 1
    14    9   21 1
    15   10   12 1
    16   10   18 1
    17   11   15 2
    18   11   19 1
    19   12   14 1
    20   13   20 1
    21   16   20 2
    22   17   20 2
    23    1   22 1
    24    2   23 1
    25    3   24 1
    26    4   25 1
    27    5   26 1
    28   12   27 1
    29   12   28 1
    30   13   29 1
    31   13   30 1
    32   14   31 1
    33   19   32 1
@<TRIPOS>MOLECULE
*****
   32    33     0     0     0
SMALL
NO_CHARGES

@<TRIPOS>ATOM
      1 C1         -0.8815   -2.1924    6.5464 C.2       1 <0>         0.0000
      2 C2         -0.1865   -1.0035    6.2197 C.2       1 <0>         0.0000
      3 C3          1.8851   -1.0363   -0.1124 C.ar      1 <0>         0.0000
      4 C4          1.7997   -1.0786    2.6757 C.ar      1 <0>         0.0000
      5 C5         -1.6597   -2.4928    5.4527 C.2       1 <0>         0.0000
      6 C6          0.8066   -0.4630    0.5610 C.ar      1 <0>         0.0000
      7 C7          0.7638   -0.4841    1.9551 C.ar      1 <0>         0.0000
      8 C8          2.9210   -1.6309    0.6081 C.ar      1 <0>         0.0000
      9 C9          2.8783   -1.6520    2.0022 C.ar      1 <0>         0.0000
     10 C10        -0.5893   -0.6623    4.9496 C.2       1 <0>         0.0000
     11 C11        -0.2597    0.1505   -0.2205 C.2       1 <0>         0.0000
     12 C12        -0.2376    0.4719    4.0308 C.3       1 <0>         0.0000
     13 N1          3.7571   -2.0119   -1.8940 N.pl3     1 <0>         0.0000
     14 N2         -0.3194    0.0914    2.6559 N.pl3     1 <0>         0.0000
     15 O1         -0.9578    1.0989    0.1469 O.2       1 <0>         0.0000
     16 O2          5.4503   -1.5673   -0.0016 O.2       1 <0>         0.0000
     17 O3          4.2353   -3.7732   -0.0757 O.2       1 <0>         0.0000
     18 O4         -1.4873   -1.5650    4.4749 O.3       1 <0>         0.0000
     19 O5         -0.4169   -0.4409   -1.4352 O.3       1 <0>         0.0000
     20 S1          4.2498   -2.3351   -0.2914 S.o2      1 <0>         0.0000
     21 Cl1         4.1349   -2.3756    2.9403 Cl        1 <0>         0.0000
     22 H1         -0.8230   -2.7592    7.4643 H         1 <0>         0.0000
     23 H2          0.5192   -0.4647    6.8359 H         1 <0>         0.0000
     24 H3          1.9175   -1.0191   -1.1997 H         1 <0>         0.0000
     25 H4          1.7615   -1.0924    3.7631 H         1 <0>         0.0000
     26 H5         -2.3536   -3.2885    5.2252 H         1 <0>         0.0000
     27 H6         -0.9140    1.3193    4.1871 H         1 <0>         0.0000
     28 H7          0.7803    0.8291    4.2193 H         1 <0>         0.0000
     29 H8          4.2724   -1.2958   -2.4203 H         1 <0>         0.0000
     30 H9          3.4412   -2.8026   -2.4687 H         1 <0>         0.0000
     31 H10        -1.1691    0.2259    2.1433 H         1 <0>         0.0000
     32 H11        -1.1320   -0.0344   -1.9696 H         1 <0>         0.0000
@<TRIPOS>BOND
     1    1    2 1
     2    1    5 2
     3    2   10 2
     4    3    6 ar
     5    3    8 ar
     6    4    7 ar
     7    4    9 ar
     8    5   18 1
     9    6    7 ar
    10    6   11 1
    11    7   14 1
    12    8    9 ar
    13    8   20 1
    14    9   21 1
    15   10   12 1
    16   10   18 1
    17   11   15 2
    18   11   19 1
    19   12   14 1
    20   13   20 1
    21   16   20 2
    22   17   20 2
    23    1   22 1
    24    2   23 1
    25    3   24 1
    26    4   25 1
    27    5   26 1
    28   12   27 1
    29   12   28 1
    30   13   29 1
    31   13   30 1
    32   14   31 1
    33   19   32 1
@<TRIPOS>MOLECULE
*****
   32    33     0     0     0
SMALL
NO_CHARGES

@<TRIPOS>ATOM
      1 C1         -4.3030    0.2074    4.4269 C.2       1 <0>         0.0000
      2 C2         -3.1201    0.6078    3.7609 C.2       1 <0>         0.0000
      3 C3          1.8851   -1.0363   -0.1124 C.ar      1 <0>         0.0000
      4 C4          1.7997   -1.0786    2.6757 C.ar      1 <0>         0.0000
      5 C5         -3.9307   -0.7852    5.3032 C.2       1 <0>         0.0000
      6 C6          0.8066   -0.4630    0.5610 C.ar      1 <0>         0.0000
      7 C7          0.7638   -0.4841    1.9551 C.ar      1 <0>         0.0000
      8 C8          2.9210   -1.6309    0.6081 C.ar      1 <0>         0.0000
      9 C9          2.8783   -1.6520    2.0022 C.ar      1 <0>         0.0000
     10 C10        -2.1092   -0.1686    4.2779 C.2       1 <0>         0.0000
     11 C11        -0.2597    0.1505   -0.2205 C.2       1 <0>         0.0000
     12 C12        -0.6343   -0.2470    4.0080 C.3       1 <0>         0.0000
     13 N1          3.6819   -3.9315   -0.5023 N.pl3     1 <0>         0.0000
     14 N2         -0.3194    0.0914    2.6559 N.pl3     1 <0>         0.0000
     15 O1         -1.4445   -0.1926   -0.2028 O.2       1 <0>         0.0000
     16 O2          4.3156   -1.6812   -1.5886 O.2       1 <0>         0.0000
     17 O3          5.4206   -2.3623    0.5707 O.2       1 <0>         0.0000
     18 O4         -2.5950   -1.0203    5.2187 O.3       1 <0>         0.0000
     19 O5          0.1902    1.1727   -0.9968 O.3       1 <0>         0.0000
     20 S1          4.2498   -2.3351   -0.2914 S.o2      1 <0>         0.0000
     21 Cl1         4.1349   -2.3756    2.9403 Cl        1 <0>         0.0000
     22 H1         -5.3020    0.5936    4.2856 H         1 <0>         0.0000
     23 H2         -3.0203    1.3677    2.9990 H         1 <0>         0.0000
     24 H3          1.9175   -1.0191   -1.1997 H         1 <0>         0.0000
     25 H4          1.7615   -1.0924    3.7631 H         1 <0>         0.0000
     26 H5         -4.4679   -1.3916    6.0176 H         1 <0>         0.0000
     27 H6         -0.0849    0.4372    4.6637 H         1 <0>         0.0000
     28 H7         -0.2531   -1.2559    4.1981 H         1 <0>         0.0000
     29 H8          3.3857   -4.2160   -1.4440 H         1 <0>         0.0000
     30 H9          4.1398   -4.6794    0.0326 H         1 <0>         0.0000
     31 H10        -0.8743    0.7612    2.1595 H         1 <0>         0.0000
     32 H11        -0.5205    1.5931   -1.5264 H         1 <0>         0.0000
@<TRIPOS>BOND
     1    1    2 1
     2    1    5 2
     3    2   10 2
     4    3    6 ar
     5    3    8 ar
     6    4    7 ar
     7    4    9 ar
     8    5   18 1
     9    6    7 ar
    10    6   11 1
    11    7   14 1
    12    8    9 ar
    13    8   20 1
    14    9   21 1
    15   10   12 1
    16   10   18 1
    17   11   15 2
    18   11   19 1
    19   12   14 1
    20   13   20 1
    21   16   20 2
    22   17   20 2
    23    1   22 1
    24    2   23 1
    25    3   24 1
    26    4   25 1
    27    5   26 1
    28   12   27 1
    29   12   28 1
    30   13   29 1
    31   13   30 1
    32   14   31 1
    33   19   32 1
@<TRIPOS>MOLECULE
*****
   32    33     0     0     0
SMALL
NO_CHARGES

@<TRIPOS>ATOM
      1 C1         -4.3030    0.2074    4.4269 C.2       1 <0>         0.0000
      2 C2         -3.1201    0.6078    3.7609 C.2       1 <0>         0.0000
      3 C3          1.8851   -1.0363   -0.1124 C.ar      1 <0>         0.0000
      4 C4          1.7997   -1.0786    2.6757 C.ar      1 <0>         0.0000
      5 C5         -3.9307   -0.7852    5.3032 C.2       1 <0>         0.0000
      6 C6          0.8066   -0.4630    0.5610 C.ar      1 <0>         0.0000
      7 C7          0.7638   -0.4841    1.9551 C.ar      1 <0>         0.0000
      8 C8          2.9210   -1.6309    0.6081 C.ar      1 <0>         0.0000
      9 C9          2.8783   -1.6520    2.0022 C.ar      1 <0>         0.0000
     10 C10        -2.1092   -0.1686    4.2779 C.2       1 <0>         0.0000
     11 C11        -0.2597    0.1505   -0.2205 C.2       1 <0>         0.0000
     12 C12        -0.6343   -0.2470    4.0080 C.3       1 <0>         0.0000
     13 N1          5.3017   -0.9953   -0.4082 N.pl3     1 <0>         0.0000
     14 N2         -0.3194    0.0914    2.6559 N.pl3     1 <0>         0.0000
     15 O1         -1.4445   -0.1926   -0.2028 O.2       1 <0>         0.0000
     16 O2          4.8710   -3.3532    0.5407 O.2       1 <0>         0.0000
     17 O3          3.7708   -2.6745   -1.6219 O.2       1 <0>         0.0000
     18 O4         -2.5950   -1.0203    5.2187 O.3       1 <0>         0.0000
     19 O5          0.1902    1.1727   -0.9968 O.3       1 <0>         0.0000
     20 S1          4.2498   -2.3351   -0.2914 S.o2      1 <0>         0.0000
     21 Cl1         4.1349   -2.3756    2.9403 Cl        1 <0>         0.0000
     22 H1         -5.3020    0.5936    4.2856 H         1 <0>         0.0000
     23 H2         -3.0203    1.3677    2.9990 H         1 <0>         0.0000
     24 H3          1.9175   -1.0191   -1.1997 H         1 <0>         0.0000
     25 H4          1.7615   -1.0924    3.7631 H         1 <0>         0.0000
     26 H5         -4.4679   -1.3916    6.0176 H         1 <0>         0.0000
     27 H6         -0.0849    0.4372    4.6637 H         1 <0>         0.0000
     28 H7         -0.2531   -1.2559    4.1981 H         1 <0>         0.0000
     29 H8          6.1638   -1.0106    0.1504 H         1 <0>         0.0000
     30 H9          5.4099   -0.5473   -1.3263 H         1 <0>         0.0000
     31 H10        -0.8743    0.7612    2.1595 H         1 <0>         0.0000
     32 H11        -0.5205    1.5931   -1.5264 H         1 <0>         0.0000
@<TRIPOS>BOND
     1    1    2 1
     2    1    5 2
     3    2   10 2
     4    3    6 ar
     5    3    8 ar
     6    4    7 ar
     7    4    9 ar
     8    5   18 1
     9    6    7 ar
    10    6   11 1
    11    7   14 1
    12    8    9 ar
    13    8   20 1
    14    9   21 1
    15   10   12 1
    16   10   18 1
    17   11   15 2
    18   11   19 1
    19   12   14 1
    20   13   20 1
    21   16   20 2
    22   17   20 2
    23    1   22 1
    24    2   23 1
    25    3   24 1
    26    4   25 1
    27    5   26 1
    28   12   27 1
    29   12   28 1
    30   13   29 1
    31   13   30 1
    32   14   31 1
    33   19   32 1
@<TRIPOS>MOLECULE
*****
   32    33     0     0     0
SMALL
NO_CHARGES

@<TRIPOS>ATOM
      1 C1         -1.1555   -3.8546    4.7529 C.2       1 <0>         0.0000
      2 C2         -0.7116   -2.5932    5.2165 C.2       1 <0>         0.0000
      3 C3          1.8851   -1.0363   -0.1124 C.ar      1 <0>         0.0000
      4 C4          1.7997   -1.0786    2.6757 C.ar      1 <0>         0.0000
      5 C5         -1.5800   -3.6585    3.4593 C.2       1 <0>         0.0000
      6 C6          0.8066   -0.4630    0.5610 C.ar      1 <0>         0.0000
      7 C7          0.7638   -0.4841    1.9551 C.ar      1 <0>         0.0000
      8 C8          2.9210   -1.6309    0.6081 C.ar      1 <0>         0.0000
      9 C9          2.8783   -1.6520    2.0022 C.ar      1 <0>         0.0000
     10 C10        -0.8963   -1.7162    4.1730 C.2       1 <0>         0.0000
     11 C11        -0.2597    0.1505   -0.2205 C.2       1 <0>         0.0000
     12 C12        -0.6343   -0.2470    4.0080 C.3       1 <0>         0.0000
     13 N1          3.7571   -2.0119   -1.8940 N.pl3     1 <0>         0.0000
     14 N2         -0.3194    0.0914    2.6559 N.pl3     1 <0>         0.0000
     15 O1         -1.4439    0.2177    0.1184 O.2       1 <0>         0.0000
     16 O2          5.4503   -1.5673   -0.0016 O.2       1 <0>         0.0000
     17 O3          4.2353   -3.7732   -0.0757 O.2       1 <0>         0.0000
     18 O4         -1.4252   -2.3577    3.0982 O.3       1 <0>         0.0000
     19 O5          0.1899    0.6603   -1.3986 O.3       1 <0>         0.0000
     20 S1          4.2498   -2.3351   -0.2914 S.o2      1 <0>         0.0000
     21 Cl1         4.1349   -2.3756    2.9403 Cl        1 <0>         0.0000
     22 H1         -1.1653   -4.7897    5.2939 H         1 <0>         0.0000
     23 H2         -0.3082   -2.3561    6.1906 H         1 <0>         0.0000
     24 H3          1.9175   -1.0191   -1.1997 H         1 <0>         0.0000
     25 H4          1.7615   -1.0924    3.7631 H         1 <0>         0.0000
     26 H5         -1.9958   -4.3075    2.7027 H         1 <0>         0.0000
     27 H6         -1.5114    0.3375    4.3065 H         1 <0>         0.0000
     28 H7          0.2015    0.0762    4.6374 H         1 <0>         0.0000
     29 H8          4.2724   -1.2958   -2.4203 H         1 <0>         0.0000
     30 H9          3.4412   -2.8026   -2.4687 H         1 <0>         0.0000
     31 H10        -0.8743    0.7612    2.1595 H         1 <0>         0.0000
     32 H11        -0.5205    1.0766   -1.9319 H         1 <0>         0.0000
@<TRIPOS>BOND
     1    1    2 1
     2    1    5 2
     3    2   10 2
     4    3    6 ar
     5    3    8 ar
     6    4    7 ar
     7    4    9 ar
     8    5   18 1
     9    6    7 ar
    10    6   11 1
    11    7   14 1
    12    8    9 ar
    13    8   20 1
    14    9   21 1
    15   10   12 1
    16   10   18 1
    17   11   15 2
    18   11   19 1
    19   12   14 1
    20   13   20 1
    21   16   20 2
    22   17   20 2
    23    1   22 1
    24    2   23 1
    25    3   24 1
    26    4   25 1
    27    5   26 1
    28   12   27 1
    29   12   28 1
    30   13   29 1
    31   13   30 1
    32   14   31 1
    33   19   32 1
@<TRIPOS>MOLECULE
*****
   32    33     0     0     0
SMALL
NO_CHARGES

@<TRIPOS>ATOM
      1 C1         -4.2404   -0.3146    4.9205 C.2       1 <0>         0.0000
      2 C2         -2.9463   -0.8467    5.1331 C.2       1 <0>         0.0000
      3 C3          1.8851   -1.0363   -0.1124 C.ar      1 <0>         0.0000
      4 C4          1.7997   -1.0786    2.6757 C.ar      1 <0>         0.0000
      5 C5         -4.1018    0.6509    3.9506 C.2       1 <0>         0.0000
      6 C6          0.8066   -0.4630    0.5610 C.ar      1 <0>         0.0000
      7 C7          0.7638   -0.4841    1.9551 C.ar      1 <0>         0.0000
      8 C8          2.9210   -1.6309    0.6081 C.ar      1 <0>         0.0000
      9 C9          2.8783   -1.6520    2.0022 C.ar      1 <0>         0.0000
     10 C10        -2.1092   -0.1686    4.2779 C.2       1 <0>         0.0000
     11 C11        -0.2597    0.1505   -0.2205 C.2       1 <0>         0.0000
     12 C12        -0.6343   -0.2470    4.0080 C.3       1 <0>         0.0000
     13 N1          3.6819   -3.9315   -0.5023 N.pl3     1 <0>         0.0000
     14 N2         -0.3194    0.0914    2.6559 N.pl3     1 <0>         0.0000
     15 O1         -1.4445   -0.1926   -0.2028 O.2       1 <0>         0.0000
     16 O2          4.3156   -1.6812   -1.5886 O.2       1 <0>         0.0000
     17 O3          5.4206   -2.3623    0.5707 O.2       1 <0>         0.0000
     18 O4         -2.8058    0.7460    3.5535 O.3       1 <0>         0.0000
     19 O5          0.1902    1.1727   -0.9968 O.3       1 <0>         0.0000
     20 S1          4.2498   -2.3351   -0.2914 S.o2      1 <0>         0.0000
     21 Cl1         4.1349   -2.3756    2.9403 Cl        1 <0>         0.0000
     22 H1         -5.1592   -0.5988    5.4127 H         1 <0>         0.0000
     23 H2         -2.6624   -1.6270    5.8248 H         1 <0>         0.0000
     24 H3          1.9175   -1.0191   -1.1997 H         1 <0>         0.0000
     25 H4          1.7615   -1.0924    3.7631 H         1 <0>         0.0000
     26 H5         -4.7915    1.3226    3.4608 H         1 <0>         0.0000
     27 H6         -0.0849    0.4372    4.6637 H         1 <0>         0.0000
     28 H7         -0.2531   -1.2559    4.1981 H         1 <0>         0.0000
     29 H8          3.3857   -4.2160   -1.4440 H         1 <0>         0.0000
     30 H9          4.1398   -4.6794    0.0326 H         1 <0>         0.0000
     31 H10        -0.8743    0.7612    2.1595 H         1 <0>         0.0000
     32 H11        -0.5205    1.5931   -1.5264 H         1 <0>         0.0000
@<TRIPOS>BOND
     1    1    2 1
     2    1    5 2
     3    2   10 2
     4    3    6 ar
     5    3    8 ar
     6    4    7 ar
     7    4    9 ar
     8    5   18 1
     9    6    7 ar
    10    6   11 1
    11    7   14 1
    12    8    9 ar
    13    8   20 1
    14    9   21 1
    15   10   12 1
    16   10   18 1
    17   11   15 2
    18   11   19 1
    19   12   14 1
    20   13   20 1
    21   16   20 2
    22   17   20 2
    23    1   22 1
    24    2   23 1
    25    3   24 1
    26    4   25 1
    27    5   26 1
    28   12   27 1
    29   12   28 1
    30   13   29 1
    31   13   30 1
    32   14   31 1
    33   19   32 1
@<TRIPOS>MOLECULE
*****
   32    33     0     0     0
SMALL
NO_CHARGES

@<TRIPOS>ATOM
      1 C1         -4.2404   -0.3146    4.9205 C.2       1 <0>         0.0000
      2 C2         -2.9463   -0.8467    5.1331 C.2       1 <0>         0.0000
      3 C3          1.8851   -1.0363   -0.1124 C.ar      1 <0>         0.0000
      4 C4          1.7997   -1.0786    2.6757 C.ar      1 <0>         0.0000
      5 C5         -4.1018    0.6509    3.9506 C.2       1 <0>         0.0000
      6 C6          0.8066   -0.4630    0.5610 C.ar      1 <0>         0.0000
      7 C7          0.7638   -0.4841    1.9551 C.ar      1 <0>         0.0000
      8 C8          2.9210   -1.6309    0.6081 C.ar      1 <0>         0.0000
      9 C9          2.8783   -1.6520    2.0022 C.ar      1 <0>         0.0000
     10 C10        -2.1092   -0.1686    4.2779 C.2       1 <0>         0.0000
     11 C11        -0.2597    0.1505   -0.2205 C.2       1 <0>         0.0000
     12 C12        -0.6343   -0.2470    4.0080 C.3       1 <0>         0.0000
     13 N1          5.3017   -0.9953   -0.4082 N.pl3     1 <0>         0.0000
     14 N2         -0.3194    0.0914    2.6559 N.pl3     1 <0>         0.0000
     15 O1         -1.4445   -0.1926   -0.2028 O.2       1 <0>         0.0000
     16 O2          4.8710   -3.3532    0.5407 O.2       1 <0>         0.0000
     17 O3          3.7708   -2.6745   -1.6219 O.2       1 <0>         0.0000
     18 O4         -2.8058    0.7460    3.5535 O.3       1 <0>         0.0000
     19 O5          0.1902    1.1727   -0.9968 O.3       1 <0>         0.0000
     20 S1          4.2498   -2.3351   -0.2914 S.o2      1 <0>         0.0000
     21 Cl1         4.1349   -2.3756    2.9403 Cl        1 <0>         0.0000
     22 H1         -5.1592   -0.5988    5.4127 H         1 <0>         0.0000
     23 H2         -2.6624   -1.6270    5.8248 H         1 <0>         0.0000
     24 H3          1.9175   -1.0191   -1.1997 H         1 <0>         0.0000
     25 H4          1.7615   -1.0924    3.7631 H         1 <0>         0.0000
     26 H5         -4.7915    1.3226    3.4608 H         1 <0>         0.0000
     27 H6         -0.0849    0.4372    4.6637 H         1 <0>         0.0000
     28 H7         -0.2531   -1.2559    4.1981 H         1 <0>         0.0000
     29 H8          6.1638   -1.0106    0.1504 H         1 <0>         0.0000
     30 H9          5.4099   -0.5473   -1.3263 H         1 <0>         0.0000
     31 H10        -0.8743    0.7612    2.1595 H         1 <0>         0.0000
     32 H11        -0.5205    1.5931   -1.5264 H         1 <0>         0.0000
@<TRIPOS>BOND
     1    1    2 1
     2    1    5 2
     3    2   10 2
     4    3    6 ar
     5    3    8 ar
     6    4    7 ar
     7    4    9 ar
     8    5   18 1
     9    6    7 ar
    10    6   11 1
    11    7   14 1
    12    8    9 ar
    13    8   20 1
    14    9   21 1
    15   10   12 1
    16   10   18 1
    17   11   15 2
    18   11   19 1
    19   12   14 1
    20   13   20 1
    21   16   20 2
    22   17   20 2
    23    1   22 1
    24    2   23 1
    25    3   24 1
    26    4   25 1
    27    5   26 1
    28   12   27 1
    29   12   28 1
    30   13   29 1
    31   13   30 1
    32   14   31 1
    33   19   32 1
@<TRIPOS>MOLECULE
*****
   32    33     0     0     0
SMALL
NO_CHARGES

@<TRIPOS>ATOM
      1 C1         -4.3030    0.2074    4.4269 C.2       1 <0>         0.0000
      2 C2         -3.1201    0.6078    3.7609 C.2       1 <0>         0.0000
      3 C3          1.8851   -1.0363   -0.1124 C.ar      1 <0>         0.0000
      4 C4          1.7997   -1.0786    2.6757 C.ar      1 <0>         0.0000
      5 C5         -3.9307   -0.7852    5.3032 C.2       1 <0>         0.0000
      6 C6          0.8066   -0.4630    0.5610 C.ar      1 <0>         0.0000
      7 C7          0.7638   -0.4841    1.9551 C.ar      1 <0>         0.0000
      8 C8          2.9210   -1.6309    0.6081 C.ar      1 <0>         0.0000
      9 C9          2.8783   -1.6520    2.0022 C.ar      1 <0>         0.0000
     10 C10        -2.1092   -0.1686    4.2779 C.2       1 <0>         0.0000
     11 C11        -0.2597    0.1505   -0.2205 C.2       1 <0>         0.0000
     12 C12        -0.6343   -0.2470    4.0080 C.3       1 <0>         0.0000
     13 N1          3.7571   -2.0119   -1.8940 N.pl3     1 <0>         0.0000
     14 N2         -0.3194    0.0914    2.6559 N.pl3     1 <0>         0.0000
     15 O1         -1.4445   -0.1926   -0.2028 O.2       1 <0>         0.0000
     16 O2          5.4503   -1.5673   -0.0016 O.2       1 <0>         0.0000
     17 O3          4.2353   -3.7732   -0.0757 O.2       1 <0>         0.0000
     18 O4         -2.5950   -1.0203    5.2187 O.3       1 <0>         0.0000
     19 O5          0.1902    1.1727   -0.9968 O.3       1 <0>         0.0000
     20 S1          4.2498   -2.3351   -0.2914 S.o2      1 <0>         0.0000
     21 Cl1         4.1349   -2.3756    2.9403 Cl        1 <0>         0.0000
     22 H1         -5.3020    0.5936    4.2856 H         1 <0>         0.0000
     23 H2         -3.0203    1.3677    2.9990 H         1 <0>         0.0000
     24 H3          1.9175   -1.0191   -1.1997 H         1 <0>         0.0000
     25 H4          1.7615   -1.0924    3.7631 H         1 <0>         0.0000
     26 H5         -4.4679   -1.3916    6.0176 H         1 <0>         0.0000
     27 H6         -0.0849    0.4372    4.6637 H         1 <0>         0.0000
     28 H7         -0.2531   -1.2559    4.1981 H         1 <0>         0.0000
     29 H8          4.2724   -1.2958   -2.4203 H         1 <0>         0.0000
     30 H9          3.4412   -2.8026   -2.4687 H         1 <0>         0.0000
     31 H10        -0.8743    0.7612    2.1595 H         1 <0>         0.0000
     32 H11        -0.5205    1.5931   -1.5264 H         1 <0>         0.0000
@<TRIPOS>BOND
     1    1    2 1
     2    1    5 2
     3    2   10 2
     4    3    6 ar
     5    3    8 ar
     6    4    7 ar
     7    4    9 ar
     8    5   18 1
     9    6    7 ar
    10    6   11 1
    11    7   14 1
    12    8    9 ar
    13    8   20 1
    14    9   21 1
    15   10   12 1
    16   10   18 1
    17   11   15 2
    18   11   19 1
    19   12   14 1
    20   13   20 1
    21   16   20 2
    22   17   20 2
    23    1   22 1
    24    2   23 1
    25    3   24 1
    26    4   25 1
    27    5   26 1
    28   12   27 1
    29   12   28 1
    30   13   29 1
    31   13   30 1
    32   14   31 1
    33   19   32 1
@<TRIPOS>MOLECULE
*****
   32    33     0     0     0
SMALL
NO_CHARGES

@<TRIPOS>ATOM
      1 C1         -4.2404   -0.3146    4.9205 C.2       1 <0>         0.0000
      2 C2         -2.9463   -0.8467    5.1331 C.2       1 <0>         0.0000
      3 C3          1.8851   -1.0363   -0.1124 C.ar      1 <0>         0.0000
      4 C4          1.7997   -1.0786    2.6757 C.ar      1 <0>         0.0000
      5 C5         -4.1018    0.6509    3.9506 C.2       1 <0>         0.0000
      6 C6          0.8066   -0.4630    0.5610 C.ar      1 <0>         0.0000
      7 C7          0.7638   -0.4841    1.9551 C.ar      1 <0>         0.0000
      8 C8          2.9210   -1.6309    0.6081 C.ar      1 <0>         0.0000
      9 C9          2.8783   -1.6520    2.0022 C.ar      1 <0>         0.0000
     10 C10        -2.1092   -0.1686    4.2779 C.2       1 <0>         0.0000
     11 C11        -0.2597    0.1505   -0.2205 C.2       1 <0>         0.0000
     12 C12        -0.6343   -0.2470    4.0080 C.3       1 <0>         0.0000
     13 N1          3.7571   -2.0119   -1.8940 N.pl3     1 <0>         0.0000
     14 N2         -0.3194    0.0914    2.6559 N.pl3     1 <0>         0.0000
     15 O1         -1.4445   -0.1926   -0.2028 O.2       1 <0>         0.0000
     16 O2          5.4503   -1.5673   -0.0016 O.2       1 <0>         0.0000
     17 O3          4.2353   -3.7732   -0.0757 O.2       1 <0>         0.0000
     18 O4         -2.8058    0.7460    3.5535 O.3       1 <0>         0.0000
     19 O5          0.1902    1.1727   -0.9968 O.3       1 <0>         0.0000
     20 S1          4.2498   -2.3351   -0.2914 S.o2      1 <0>         0.0000
     21 Cl1         4.1349   -2.3756    2.9403 Cl        1 <0>         0.0000
     22 H1         -5.1592   -0.5988    5.4127 H         1 <0>         0.0000
     23 H2         -2.6624   -1.6270    5.8248 H         1 <0>         0.0000
     24 H3          1.9175   -1.0191   -1.1997 H         1 <0>         0.0000
     25 H4          1.7615   -1.0924    3.7631 H         1 <0>         0.0000
     26 H5         -4.7915    1.3226    3.4608 H         1 <0>         0.0000
     27 H6         -0.0849    0.4372    4.6637 H         1 <0>         0.0000
     28 H7         -0.2531   -1.2559    4.1981 H         1 <0>         0.0000
     29 H8          4.2724   -1.2958   -2.4203 H         1 <0>         0.0000
     30 H9          3.4412   -2.8026   -2.4687 H         1 <0>         0.0000
     31 H10        -0.8743    0.7612    2.1595 H         1 <0>         0.0000
     32 H11        -0.5205    1.5931   -1.5264 H         1 <0>         0.0000
@<TRIPOS>BOND
     1    1    2 1
     2    1    5 2
     3    2   10 2
     4    3    6 ar
     5    3    8 ar
     6    4    7 ar
     7    4    9 ar
     8    5   18 1
     9    6    7 ar
    10    6   11 1
    11    7   14 1
    12    8    9 ar
    13    8   20 1
    14    9   21 1
    15   10   12 1
    16   10   18 1
    17   11   15 2
    18   11   19 1
    19   12   14 1
    20   13   20 1
    21   16   20 2
    22   17   20 2
    23    1   22 1
    24    2   23 1
    25    3   24 1
    26    4   25 1
    27    5   26 1
    28   12   27 1
    29   12   28 1
    30   13   29 1
    31   13   30 1
    32   14   31 1
    33   19   32 1
@<TRIPOS>MOLECULE
*****
   32    33     0     0     0
SMALL
NO_CHARGES

@<TRIPOS>ATOM
      1 C1         -2.2970   -2.7641    5.5302 C.2       1 <0>         0.0000
      2 C2         -2.1963   -1.3621    5.3645 C.2       1 <0>         0.0000
      3 C3          1.8851   -1.0363   -0.1124 C.ar      1 <0>         0.0000
      4 C4          1.7997   -1.0786    2.6757 C.ar      1 <0>         0.0000
      5 C5         -1.2238   -3.3058    4.8619 C.2       1 <0>         0.0000
      6 C6          0.8066   -0.4630    0.5610 C.ar      1 <0>         0.0000
      7 C7          0.7638   -0.4841    1.9551 C.ar      1 <0>         0.0000
      8 C8          2.9210   -1.6309    0.6081 C.ar      1 <0>         0.0000
      9 C9          2.8783   -1.6520    2.0022 C.ar      1 <0>         0.0000
     10 C10        -1.0685   -1.1470    4.6070 C.2       1 <0>         0.0000
     11 C11        -0.2597    0.1505   -0.2205 C.2       1 <0>         0.0000
     12 C12        -0.4053    0.0935    4.0823 C.3       1 <0>         0.0000
     13 N1          3.6819   -3.9315   -0.5023 N.pl3     1 <0>         0.0000
     14 N2         -0.3194    0.0914    2.6559 N.pl3     1 <0>         0.0000
     15 O1         -1.4439    0.2177    0.1184 O.2       1 <0>         0.0000
     16 O2          4.3156   -1.6812   -1.5886 O.2       1 <0>         0.0000
     17 O3          5.4206   -2.3623    0.5707 O.2       1 <0>         0.0000
     18 O4         -0.4699   -2.3268    4.2965 O.3       1 <0>         0.0000
     19 O5          0.1899    0.6603   -1.3986 O.3       1 <0>         0.0000
     20 S1          4.2498   -2.3351   -0.2914 S.o2      1 <0>         0.0000
     21 Cl1         4.1349   -2.3756    2.9403 Cl        1 <0>         0.0000
     22 H1         -3.0570   -3.3114    6.0688 H         1 <0>         0.0000
     23 H2         -2.8645   -0.6054    5.7503 H         1 <0>         0.0000
     24 H3          1.9175   -1.0191   -1.1997 H         1 <0>         0.0000
     25 H4          1.7615   -1.0924    3.7631 H         1 <0>         0.0000
     26 H5         -0.8744   -4.3155    4.7032 H         1 <0>         0.0000
     27 H6         -0.9624    0.9868    4.3853 H         1 <0>         0.0000
     28 H7          0.6105    0.1938    4.4787 H         1 <0>         0.0000
     29 H8          3.3857   -4.2160   -1.4440 H         1 <0>         0.0000
     30 H9          4.1398   -4.6794    0.0326 H         1 <0>         0.0000
     31 H10        -1.0445    0.5076    2.1046 H         1 <0>         0.0000
     32 H11        -0.5205    1.0766   -1.9319 H         1 <0>         0.0000
@<TRIPOS>BOND
     1    1    2 1
     2    1    5 2
     3    2   10 2
     4    3    6 ar
     5    3    8 ar
     6    4    7 ar
     7    4    9 ar
     8    5   18 1
     9    6    7 ar
    10    6   11 1
    11    7   14 1
    12    8    9 ar
    13    8   20 1
    14    9   21 1
    15   10   12 1
    16   10   18 1
    17   11   15 2
    18   11   19 1
    19   12   14 1
    20   13   20 1
    21   16   20 2
    22   17   20 2
    23    1   22 1
    24    2   23 1
    25    3   24 1
    26    4   25 1
    27    5   26 1
    28   12   27 1
    29   12   28 1
    30   13   29 1
    31   13   30 1
    32   14   31 1
    33   19   32 1
@<TRIPOS>MOLECULE
*****
   32    33     0     0     0
SMALL
NO_CHARGES

@<TRIPOS>ATOM
      1 C1          1.8034    2.8239    5.3104 C.2       1 <0>         0.0000
      2 C2          1.5461    1.8575    4.3089 C.2       1 <0>         0.0000
      3 C3          1.8851   -1.0363   -0.1124 C.ar      1 <0>         0.0000
      4 C4          1.7997   -1.0786    2.6757 C.ar      1 <0>         0.0000
      5 C5          0.7919    2.6957    6.2337 C.2       1 <0>         0.0000
      6 C6          0.8066   -0.4630    0.5610 C.ar      1 <0>         0.0000
      7 C7          0.7638   -0.4841    1.9551 C.ar      1 <0>         0.0000
      8 C8          2.9210   -1.6309    0.6081 C.ar      1 <0>         0.0000
      9 C9          2.8783   -1.6520    2.0022 C.ar      1 <0>         0.0000
     10 C10         0.3959    1.2075    4.6917 C.2       1 <0>         0.0000
     11 C11        -0.2597    0.1505   -0.2205 C.2       1 <0>         0.0000
     12 C12        -0.4053    0.0935    4.0823 C.3       1 <0>         0.0000
     13 N1          3.6819   -3.9315   -0.5023 N.pl3     1 <0>         0.0000
     14 N2         -0.3194    0.0914    2.6559 N.pl3     1 <0>         0.0000
     15 O1         -0.9578    1.0989    0.1469 O.2       1 <0>         0.0000
     16 O2          4.3156   -1.6812   -1.5886 O.2       1 <0>         0.0000
     17 O3          5.4206   -2.3623    0.5707 O.2       1 <0>         0.0000
     18 O4         -0.0701    1.7125    5.8640 O.3       1 <0>         0.0000
     19 O5         -0.4169   -0.4409   -1.4352 O.3       1 <0>         0.0000
     20 S1          4.2498   -2.3351   -0.2914 S.o2      1 <0>         0.0000
     21 Cl1         4.1349   -2.3756    2.9403 Cl        1 <0>         0.0000
     22 H1          2.6231    3.5263    5.3537 H         1 <0>         0.0000
     23 H2          2.1283    1.6619    3.4197 H         1 <0>         0.0000
     24 H3          1.9175   -1.0191   -1.1997 H         1 <0>         0.0000
     25 H4          1.7615   -1.0924    3.7631 H         1 <0>         0.0000
     26 H5          0.5556    3.2014    7.1584 H         1 <0>         0.0000
     27 H6         -0.0517   -0.8785    4.4429 H         1 <0>         0.0000
     28 H7         -1.4630    0.1760    4.3538 H         1 <0>         0.0000
     29 H8          3.3857   -4.2160   -1.4440 H         1 <0>         0.0000
     30 H9          4.1398   -4.6794    0.0326 H         1 <0>         0.0000
     31 H10        -1.0445    0.5076    2.1046 H         1 <0>         0.0000
     32 H11        -1.1320   -0.0344   -1.9696 H         1 <0>         0.0000
@<TRIPOS>BOND
     1    1    2 1
     2    1    5 2
     3    2   10 2
     4    3    6 ar
     5    3    8 ar
     6    4    7 ar
     7    4    9 ar
     8    5   18 1
     9    6    7 ar
    10    6   11 1
    11    7   14 1
    12    8    9 ar
    13    8   20 1
    14    9   21 1
    15   10   12 1
    16   10   18 1
    17   11   15 2
    18   11   19 1
    19   12   14 1
    20   13   20 1
    21   16   20 2
    22   17   20 2
    23    1   22 1
    24    2   23 1
    25    3   24 1
    26    4   25 1
    27    5   26 1
    28   12   27 1
    29   12   28 1
    30   13   29 1
    31   13   30 1
    32   14   31 1
    33   19   32 1
@<TRIPOS>MOLECULE
*****
   32    33     0     0     0
SMALL
NO_CHARGES

@<TRIPOS>ATOM
      1 C1         -2.2970   -2.7641    5.5302 C.2       1 <0>         0.0000
      2 C2         -2.1963   -1.3621    5.3645 C.2       1 <0>         0.0000
      3 C3          1.8851   -1.0363   -0.1124 C.ar      1 <0>         0.0000
      4 C4          1.7997   -1.0786    2.6757 C.ar      1 <0>         0.0000
      5 C5         -1.2238   -3.3058    4.8619 C.2       1 <0>         0.0000
      6 C6          0.8066   -0.4630    0.5610 C.ar      1 <0>         0.0000
      7 C7          0.7638   -0.4841    1.9551 C.ar      1 <0>         0.0000
      8 C8          2.9210   -1.6309    0.6081 C.ar      1 <0>         0.0000
      9 C9          2.8783   -1.6520    2.0022 C.ar      1 <0>         0.0000
     10 C10        -1.0685   -1.1470    4.6070 C.2       1 <0>         0.0000
     11 C11        -0.2597    0.1505   -0.2205 C.2       1 <0>         0.0000
     12 C12        -0.4053    0.0935    4.0823 C.3       1 <0>         0.0000
     13 N1          5.3017   -0.9953   -0.4082 N.pl3     1 <0>         0.0000
     14 N2         -0.3194    0.0914    2.6559 N.pl3     1 <0>         0.0000
     15 O1         -1.4439    0.2177    0.1184 O.2       1 <0>         0.0000
     16 O2          4.8710   -3.3532    0.5407 O.2       1 <0>         0.0000
     17 O3          3.7708   -2.6745   -1.6219 O.2       1 <0>         0.0000
     18 O4         -0.4699   -2.3268    4.2965 O.3       1 <0>         0.0000
     19 O5          0.1899    0.6603   -1.3986 O.3       1 <0>         0.0000
     20 S1          4.2498   -2.3351   -0.2914 S.o2      1 <0>         0.0000
     21 Cl1         4.1349   -2.3756    2.9403 Cl        1 <0>         0.0000
     22 H1         -3.0570   -3.3114    6.0688 H         1 <0>         0.0000
     23 H2         -2.8645   -0.6054    5.7503 H         1 <0>         0.0000
     24 H3          1.9175   -1.0191   -1.1997 H         1 <0>         0.0000
     25 H4          1.7615   -1.0924    3.7631 H         1 <0>         0.0000
     26 H5         -0.8744   -4.3155    4.7032 H         1 <0>         0.0000
     27 H6         -0.9624    0.9868    4.3853 H         1 <0>         0.0000
     28 H7          0.6105    0.1938    4.4787 H         1 <0>         0.0000
     29 H8          6.1638   -1.0106    0.1504 H         1 <0>         0.0000
     30 H9          5.4099   -0.5473   -1.3263 H         1 <0>         0.0000
     31 H10        -1.0445    0.5076    2.1046 H         1 <0>         0.0000
     32 H11        -0.5205    1.0766   -1.9319 H         1 <0>         0.0000
@<TRIPOS>BOND
     1    1    2 1
     2    1    5 2
     3    2   10 2
     4    3    6 ar
     5    3    8 ar
     6    4    7 ar
     7    4    9 ar
     8    5   18 1
     9    6    7 ar
    10    6   11 1
    11    7   14 1
    12    8    9 ar
    13    8   20 1
    14    9   21 1
    15   10   12 1
    16   10   18 1
    17   11   15 2
    18   11   19 1
    19   12   14 1
    20   13   20 1
    21   16   20 2
    22   17   20 2
    23    1   22 1
    24    2   23 1
    25    3   24 1
    26    4   25 1
    27    5   26 1
    28   12   27 1
    29   12   28 1
    30   13   29 1
    31   13   30 1
    32   14   31 1
    33   19   32 1
@<TRIPOS>MOLECULE
*****
   32    33     0     0     0
SMALL
NO_CHARGES

@<TRIPOS>ATOM
      1 C1          1.8034    2.8239    5.3104 C.2       1 <0>         0.0000
      2 C2          1.5461    1.8575    4.3089 C.2       1 <0>         0.0000
      3 C3          1.8851   -1.0363   -0.1124 C.ar      1 <0>         0.0000
      4 C4          1.7997   -1.0786    2.6757 C.ar      1 <0>         0.0000
      5 C5          0.7919    2.6957    6.2337 C.2       1 <0>         0.0000
      6 C6          0.8066   -0.4630    0.5610 C.ar      1 <0>         0.0000
      7 C7          0.7638   -0.4841    1.9551 C.ar      1 <0>         0.0000
      8 C8          2.9210   -1.6309    0.6081 C.ar      1 <0>         0.0000
      9 C9          2.8783   -1.6520    2.0022 C.ar      1 <0>         0.0000
     10 C10         0.3959    1.2075    4.6917 C.2       1 <0>         0.0000
     11 C11        -0.2597    0.1505   -0.2205 C.2       1 <0>         0.0000
     12 C12        -0.4053    0.0935    4.0823 C.3       1 <0>         0.0000
     13 N1          5.3017   -0.9953   -0.4082 N.pl3     1 <0>         0.0000
     14 N2         -0.3194    0.0914    2.6559 N.pl3     1 <0>         0.0000
     15 O1         -0.9578    1.0989    0.1469 O.2       1 <0>         0.0000
     16 O2          4.8710   -3.3532    0.5407 O.2       1 <0>         0.0000
     17 O3          3.7708   -2.6745   -1.6219 O.2       1 <0>         0.0000
     18 O4         -0.0701    1.7125    5.8640 O.3       1 <0>         0.0000
     19 O5         -0.4169   -0.4409   -1.4352 O.3       1 <0>         0.0000
     20 S1          4.2498   -2.3351   -0.2914 S.o2      1 <0>         0.0000
     21 Cl1         4.1349   -2.3756    2.9403 Cl        1 <0>         0.0000
     22 H1          2.6231    3.5263    5.3537 H         1 <0>         0.0000
     23 H2          2.1283    1.6619    3.4197 H         1 <0>         0.0000
     24 H3          1.9175   -1.0191   -1.1997 H         1 <0>         0.0000
     25 H4          1.7615   -1.0924    3.7631 H         1 <0>         0.0000
     26 H5          0.5556    3.2014    7.1584 H         1 <0>         0.0000
     27 H6         -0.0517   -0.8785    4.4429 H         1 <0>         0.0000
     28 H7         -1.4630    0.1760    4.3538 H         1 <0>         0.0000
     29 H8          6.1638   -1.0106    0.1504 H         1 <0>         0.0000
     30 H9          5.4099   -0.5473   -1.3263 H         1 <0>         0.0000
     31 H10        -1.0445    0.5076    2.1046 H         1 <0>         0.0000
     32 H11        -1.1320   -0.0344   -1.9696 H         1 <0>         0.0000
@<TRIPOS>BOND
     1    1    2 1
     2    1    5 2
     3    2   10 2
     4    3    6 ar
     5    3    8 ar
     6    4    7 ar
     7    4    9 ar
     8    5   18 1
     9    6    7 ar
    10    6   11 1
    11    7   14 1
    12    8    9 ar
    13    8   20 1
    14    9   21 1
    15   10   12 1
    16   10   18 1
    17   11   15 2
    18   11   19 1
    19   12   14 1
    20   13   20 1
    21   16   20 2
    22   17   20 2
    23    1   22 1
    24    2   23 1
    25    3   24 1
    26    4   25 1
    27    5   26 1
    28   12   27 1
    29   12   28 1
    30   13   29 1
    31   13   30 1
    32   14   31 1
    33   19   32 1
@<TRIPOS>MOLECULE
*****
   32    33     0     0     0
SMALL
NO_CHARGES

@<TRIPOS>ATOM
      1 C1         -1.7848   -3.1680    5.2229 C.2       1 <0>         0.0000
      2 C2         -0.7717   -2.4864    4.5071 C.2       1 <0>         0.0000
      3 C3          1.8851   -1.0363   -0.1124 C.ar      1 <0>         0.0000
      4 C4          1.7997   -1.0786    2.6757 C.ar      1 <0>         0.0000
      5 C5         -2.6283   -2.1965    5.7094 C.2       1 <0>         0.0000
      6 C6          0.8066   -0.4630    0.5610 C.ar      1 <0>         0.0000
      7 C7          0.7638   -0.4841    1.9551 C.ar      1 <0>         0.0000
      8 C8          2.9210   -1.6309    0.6081 C.ar      1 <0>         0.0000
      9 C9          2.8783   -1.6520    2.0022 C.ar      1 <0>         0.0000
     10 C10        -1.0685   -1.1470    4.6070 C.2       1 <0>         0.0000
     11 C11        -0.2597    0.1505   -0.2205 C.2       1 <0>         0.0000
     12 C12        -0.4053    0.0935    4.0823 C.3       1 <0>         0.0000
     13 N1          3.6819   -3.9315   -0.5023 N.pl3     1 <0>         0.0000
     14 N2         -0.3194    0.0914    2.6559 N.pl3     1 <0>         0.0000
     15 O1         -1.4439    0.2177    0.1184 O.2       1 <0>         0.0000
     16 O2          4.3156   -1.6812   -1.5886 O.2       1 <0>         0.0000
     17 O3          5.4206   -2.3623    0.5707 O.2       1 <0>         0.0000
     18 O4         -2.1988   -0.9619    5.3383 O.3       1 <0>         0.0000
     19 O5          0.1899    0.6603   -1.3986 O.3       1 <0>         0.0000
     20 S1          4.2498   -2.3351   -0.2914 S.o2      1 <0>         0.0000
     21 Cl1         4.1349   -2.3756    2.9403 Cl        1 <0>         0.0000
     22 H1         -1.8871   -4.2338    5.3666 H         1 <0>         0.0000
     23 H2          0.0691   -2.9204    3.9849 H         1 <0>         0.0000
     24 H3          1.9175   -1.0191   -1.1997 H         1 <0>         0.0000
     25 H4          1.7615   -1.0924    3.7631 H         1 <0>         0.0000
     26 H5         -3.5293   -2.2188    6.3046 H         1 <0>         0.0000
     27 H6         -0.9624    0.9868    4.3853 H         1 <0>         0.0000
     28 H7          0.6105    0.1938    4.4787 H         1 <0>         0.0000
     29 H8          3.3857   -4.2160   -1.4440 H         1 <0>         0.0000
     30 H9          4.1398   -4.6794    0.0326 H         1 <0>         0.0000
     31 H10        -1.0445    0.5076    2.1046 H         1 <0>         0.0000
     32 H11        -0.5205    1.0766   -1.9319 H         1 <0>         0.0000
@<TRIPOS>BOND
     1    1    2 1
     2    1    5 2
     3    2   10 2
     4    3    6 ar
     5    3    8 ar
     6    4    7 ar
     7    4    9 ar
     8    5   18 1
     9    6    7 ar
    10    6   11 1
    11    7   14 1
    12    8    9 ar
    13    8   20 1
    14    9   21 1
    15   10   12 1
    16   10   18 1
    17   11   15 2
    18   11   19 1
    19   12   14 1
    20   13   20 1
    21   16   20 2
    22   17   20 2
    23    1   22 1
    24    2   23 1
    25    3   24 1
    26    4   25 1
    27    5   26 1
    28   12   27 1
    29   12   28 1
    30   13   29 1
    31   13   30 1
    32   14   31 1
    33   19   32 1
@<TRIPOS>MOLECULE
*****
   32    33     0     0     0
SMALL
NO_CHARGES

@<TRIPOS>ATOM
      1 C1         -1.7848   -3.1680    5.2229 C.2       1 <0>         0.0000
      2 C2         -0.7717   -2.4864    4.5071 C.2       1 <0>         0.0000
      3 C3          1.8851   -1.0363   -0.1124 C.ar      1 <0>         0.0000
      4 C4          1.7997   -1.0786    2.6757 C.ar      1 <0>         0.0000
      5 C5         -2.6283   -2.1965    5.7094 C.2       1 <0>         0.0000
      6 C6          0.8066   -0.4630    0.5610 C.ar      1 <0>         0.0000
      7 C7          0.7638   -0.4841    1.9551 C.ar      1 <0>         0.0000
      8 C8          2.9210   -1.6309    0.6081 C.ar      1 <0>         0.0000
      9 C9          2.8783   -1.6520    2.0022 C.ar      1 <0>         0.0000
     10 C10        -1.0685   -1.1470    4.6070 C.2       1 <0>         0.0000
     11 C11        -0.2597    0.1505   -0.2205 C.2       1 <0>         0.0000
     12 C12        -0.4053    0.0935    4.0823 C.3       1 <0>         0.0000
     13 N1          5.3017   -0.9953   -0.4082 N.pl3     1 <0>         0.0000
     14 N2         -0.3194    0.0914    2.6559 N.pl3     1 <0>         0.0000
     15 O1         -1.4439    0.2177    0.1184 O.2       1 <0>         0.0000
     16 O2          4.8710   -3.3532    0.5407 O.2       1 <0>         0.0000
     17 O3          3.7708   -2.6745   -1.6219 O.2       1 <0>         0.0000
     18 O4         -2.1988   -0.9619    5.3383 O.3       1 <0>         0.0000
     19 O5          0.1899    0.6603   -1.3986 O.3       1 <0>         0.0000
     20 S1          4.2498   -2.3351   -0.2914 S.o2      1 <0>         0.0000
     21 Cl1         4.1349   -2.3756    2.9403 Cl        1 <0>         0.0000
     22 H1         -1.8871   -4.2338    5.3666 H         1 <0>         0.0000
     23 H2          0.0691   -2.9204    3.9849 H         1 <0>         0.0000
     24 H3          1.9175   -1.0191   -1.1997 H         1 <0>         0.0000
     25 H4          1.7615   -1.0924    3.7631 H         1 <0>         0.0000
     26 H5         -3.5293   -2.2188    6.3046 H         1 <0>         0.0000
     27 H6         -0.9624    0.9868    4.3853 H         1 <0>         0.0000
     28 H7          0.6105    0.1938    4.4787 H         1 <0>         0.0000
     29 H8          6.1638   -1.0106    0.1504 H         1 <0>         0.0000
     30 H9          5.4099   -0.5473   -1.3263 H         1 <0>         0.0000
     31 H10        -1.0445    0.5076    2.1046 H         1 <0>         0.0000
     32 H11        -0.5205    1.0766   -1.9319 H         1 <0>         0.0000
@<TRIPOS>BOND
     1    1    2 1
     2    1    5 2
     3    2   10 2
     4    3    6 ar
     5    3    8 ar
     6    4    7 ar
     7    4    9 ar
     8    5   18 1
     9    6    7 ar
    10    6   11 1
    11    7   14 1
    12    8    9 ar
    13    8   20 1
    14    9   21 1
    15   10   12 1
    16   10   18 1
    17   11   15 2
    18   11   19 1
    19   12   14 1
    20   13   20 1
    21   16   20 2
    22   17   20 2
    23    1   22 1
    24    2   23 1
    25    3   24 1
    26    4   25 1
    27    5   26 1
    28   12   27 1
    29   12   28 1
    30   13   29 1
    31   13   30 1
    32   14   31 1
    33   19   32 1
@<TRIPOS>MOLECULE
*****
   32    33     0     0     0
SMALL
NO_CHARGES

@<TRIPOS>ATOM
      1 C1         -2.2970   -2.7641    5.5302 C.2       1 <0>         0.0000
      2 C2         -2.1963   -1.3621    5.3645 C.2       1 <0>         0.0000
      3 C3          1.8851   -1.0363   -0.1124 C.ar      1 <0>         0.0000
      4 C4          1.7997   -1.0786    2.6757 C.ar      1 <0>         0.0000
      5 C5         -1.2238   -3.3058    4.8619 C.2       1 <0>         0.0000
      6 C6          0.8066   -0.4630    0.5610 C.ar      1 <0>         0.0000
      7 C7          0.7638   -0.4841    1.9551 C.ar      1 <0>         0.0000
      8 C8          2.9210   -1.6309    0.6081 C.ar      1 <0>         0.0000
      9 C9          2.8783   -1.6520    2.0022 C.ar      1 <0>         0.0000
     10 C10        -1.0685   -1.1470    4.6070 C.2       1 <0>         0.0000
     11 C11        -0.2597    0.1505   -0.2205 C.2       1 <0>         0.0000
     12 C12        -0.4053    0.0935    4.0823 C.3       1 <0>         0.0000
     13 N1          3.7571   -2.0119   -1.8940 N.pl3     1 <0>         0.0000
     14 N2         -0.3194    0.0914    2.6559 N.pl3     1 <0>         0.0000
     15 O1         -1.4439    0.2177    0.1184 O.2       1 <0>         0.0000
     16 O2          5.4503   -1.5673   -0.0016 O.2       1 <0>         0.0000
     17 O3          4.2353   -3.7732   -0.0757 O.2       1 <0>         0.0000
     18 O4         -0.4699   -2.3268    4.2965 O.3       1 <0>         0.0000
     19 O5          0.1899    0.6603   -1.3986 O.3       1 <0>         0.0000
     20 S1          4.2498   -2.3351   -0.2914 S.o2      1 <0>         0.0000
     21 Cl1         4.1349   -2.3756    2.9403 Cl        1 <0>         0.0000
     22 H1         -3.0570   -3.3114    6.0688 H         1 <0>         0.0000
     23 H2         -2.8645   -0.6054    5.7503 H         1 <0>         0.0000
     24 H3          1.9175   -1.0191   -1.1997 H         1 <0>         0.0000
     25 H4          1.7615   -1.0924    3.7631 H         1 <0>         0.0000
     26 H5         -0.8744   -4.3155    4.7032 H         1 <0>         0.0000
     27 H6         -0.9624    0.9868    4.3853 H         1 <0>         0.0000
     28 H7          0.6105    0.1938    4.4787 H         1 <0>         0.0000
     29 H8          4.2724   -1.2958   -2.4203 H         1 <0>         0.0000
     30 H9          3.4412   -2.8026   -2.4687 H         1 <0>         0.0000
     31 H10        -1.0445    0.5076    2.1046 H         1 <0>         0.0000
     32 H11        -0.5205    1.0766   -1.9319 H         1 <0>         0.0000
@<TRIPOS>BOND
     1    1    2 1
     2    1    5 2
     3    2   10 2
     4    3    6 ar
     5    3    8 ar
     6    4    7 ar
     7    4    9 ar
     8    5   18 1
     9    6    7 ar
    10    6   11 1
    11    7   14 1
    12    8    9 ar
    13    8   20 1
    14    9   21 1
    15   10   12 1
    16   10   18 1
    17   11   15 2
    18   11   19 1
    19   12   14 1
    20   13   20 1
    21   16   20 2
    22   17   20 2
    23    1   22 1
    24    2   23 1
    25    3   24 1
    26    4   25 1
    27    5   26 1
    28   12   27 1
    29   12   28 1
    30   13   29 1
    31   13   30 1
    32   14   31 1
    33   19   32 1
@<TRIPOS>MOLECULE
*****
   32    33     0     0     0
SMALL
NO_CHARGES

@<TRIPOS>ATOM
      1 C1          1.8034    2.8239    5.3104 C.2       1 <0>         0.0000
      2 C2          1.5461    1.8575    4.3089 C.2       1 <0>         0.0000
      3 C3          1.8851   -1.0363   -0.1124 C.ar      1 <0>         0.0000
      4 C4          1.7997   -1.0786    2.6757 C.ar      1 <0>         0.0000
      5 C5          0.7919    2.6957    6.2337 C.2       1 <0>         0.0000
      6 C6          0.8066   -0.4630    0.5610 C.ar      1 <0>         0.0000
      7 C7          0.7638   -0.4841    1.9551 C.ar      1 <0>         0.0000
      8 C8          2.9210   -1.6309    0.6081 C.ar      1 <0>         0.0000
      9 C9          2.8783   -1.6520    2.0022 C.ar      1 <0>         0.0000
     10 C10         0.3959    1.2075    4.6917 C.2       1 <0>         0.0000
     11 C11        -0.2597    0.1505   -0.2205 C.2       1 <0>         0.0000
     12 C12        -0.4053    0.0935    4.0823 C.3       1 <0>         0.0000
     13 N1          3.7571   -2.0119   -1.8940 N.pl3     1 <0>         0.0000
     14 N2         -0.3194    0.0914    2.6559 N.pl3     1 <0>         0.0000
     15 O1         -0.9578    1.0989    0.1469 O.2       1 <0>         0.0000
     16 O2          5.4503   -1.5673   -0.0016 O.2       1 <0>         0.0000
     17 O3          4.2353   -3.7732   -0.0757 O.2       1 <0>         0.0000
     18 O4         -0.0701    1.7125    5.8640 O.3       1 <0>         0.0000
     19 O5         -0.4169   -0.4409   -1.4352 O.3       1 <0>         0.0000
     20 S1          4.2498   -2.3351   -0.2914 S.o2      1 <0>         0.0000
     21 Cl1         4.1349   -2.3756    2.9403 Cl        1 <0>         0.0000
     22 H1          2.6231    3.5263    5.3537 H         1 <0>         0.0000
     23 H2          2.1283    1.6619    3.4197 H         1 <0>         0.0000
     24 H3          1.9175   -1.0191   -1.1997 H         1 <0>         0.0000
     25 H4          1.7615   -1.0924    3.7631 H         1 <0>         0.0000
     26 H5          0.5556    3.2014    7.1584 H         1 <0>         0.0000
     27 H6         -0.0517   -0.8785    4.4429 H         1 <0>         0.0000
     28 H7         -1.4630    0.1760    4.3538 H         1 <0>         0.0000
     29 H8          4.2724   -1.2958   -2.4203 H         1 <0>         0.0000
     30 H9          3.4412   -2.8026   -2.4687 H         1 <0>         0.0000
     31 H10        -1.0445    0.5076    2.1046 H         1 <0>         0.0000
     32 H11        -1.1320   -0.0344   -1.9696 H         1 <0>         0.0000
@<TRIPOS>BOND
     1    1    2 1
     2    1    5 2
     3    2   10 2
     4    3    6 ar
     5    3    8 ar
     6    4    7 ar
     7    4    9 ar
     8    5   18 1
     9    6    7 ar
    10    6   11 1
    11    7   14 1
    12    8    9 ar
    13    8   20 1
    14    9   21 1
    15   10   12 1
    16   10   18 1
    17   11   15 2
    18   11   19 1
    19   12   14 1
    20   13   20 1
    21   16   20 2
    22   17   20 2
    23    1   22 1
    24    2   23 1
    25    3   24 1
    26    4   25 1
    27    5   26 1
    28   12   27 1
    29   12   28 1
    30   13   29 1
    31   13   30 1
    32   14   31 1
    33   19   32 1
@<TRIPOS>MOLECULE
*****
   32    33     0     0     0
SMALL
NO_CHARGES

@<TRIPOS>ATOM
      1 C1         -1.7848   -3.1680    5.2229 C.2       1 <0>         0.0000
      2 C2         -0.7717   -2.4864    4.5071 C.2       1 <0>         0.0000
      3 C3          1.8851   -1.0363   -0.1124 C.ar      1 <0>         0.0000
      4 C4          1.7997   -1.0786    2.6757 C.ar      1 <0>         0.0000
      5 C5         -2.6283   -2.1965    5.7094 C.2       1 <0>         0.0000
      6 C6          0.8066   -0.4630    0.5610 C.ar      1 <0>         0.0000
      7 C7          0.7638   -0.4841    1.9551 C.ar      1 <0>         0.0000
      8 C8          2.9210   -1.6309    0.6081 C.ar      1 <0>         0.0000
      9 C9          2.8783   -1.6520    2.0022 C.ar      1 <0>         0.0000
     10 C10        -1.0685   -1.1470    4.6070 C.2       1 <0>         0.0000
     11 C11        -0.2597    0.1505   -0.2205 C.2       1 <0>         0.0000
     12 C12        -0.4053    0.0935    4.0823 C.3       1 <0>         0.0000
     13 N1          3.7571   -2.0119   -1.8940 N.pl3     1 <0>         0.0000
     14 N2         -0.3194    0.0914    2.6559 N.pl3     1 <0>         0.0000
     15 O1         -1.4439    0.2177    0.1184 O.2       1 <0>         0.0000
     16 O2          5.4503   -1.5673   -0.0016 O.2       1 <0>         0.0000
     17 O3          4.2353   -3.7732   -0.0757 O.2       1 <0>         0.0000
     18 O4         -2.1988   -0.9619    5.3383 O.3       1 <0>         0.0000
     19 O5          0.1899    0.6603   -1.3986 O.3       1 <0>         0.0000
     20 S1          4.2498   -2.3351   -0.2914 S.o2      1 <0>         0.0000
     21 Cl1         4.1349   -2.3756    2.9403 Cl        1 <0>         0.0000
     22 H1         -1.8871   -4.2338    5.3666 H         1 <0>         0.0000
     23 H2          0.0691   -2.9204    3.9849 H         1 <0>         0.0000
     24 H3          1.9175   -1.0191   -1.1997 H         1 <0>         0.0000
     25 H4          1.7615   -1.0924    3.7631 H         1 <0>         0.0000
     26 H5         -3.5293   -2.2188    6.3046 H         1 <0>         0.0000
     27 H6         -0.9624    0.9868    4.3853 H         1 <0>         0.0000
     28 H7          0.6105    0.1938    4.4787 H         1 <0>         0.0000
     29 H8          4.2724   -1.2958   -2.4203 H         1 <0>         0.0000
     30 H9          3.4412   -2.8026   -2.4687 H         1 <0>         0.0000
     31 H10        -1.0445    0.5076    2.1046 H         1 <0>         0.0000
     32 H11        -0.5205    1.0766   -1.9319 H         1 <0>         0.0000
@<TRIPOS>BOND
     1    1    2 1
     2    1    5 2
     3    2   10 2
     4    3    6 ar
     5    3    8 ar
     6    4    7 ar
     7    4    9 ar
     8    5   18 1
     9    6    7 ar
    10    6   11 1
    11    7   14 1
    12    8    9 ar
    13    8   20 1
    14    9   21 1
    15   10   12 1
    16   10   18 1
    17   11   15 2
    18   11   19 1
    19   12   14 1
    20   13   20 1
    21   16   20 2
    22   17   20 2
    23    1   22 1
    24    2   23 1
    25    3   24 1
    26    4   25 1
    27    5   26 1
    28   12   27 1
    29   12   28 1
    30   13   29 1
    31   13   30 1
    32   14   31 1
    33   19   32 1
@<TRIPOS>MOLECULE
*****
   32    33     0     0     0
SMALL
NO_CHARGES

@<TRIPOS>ATOM
      1 C1          1.3381    2.8577    5.8603 C.2       1 <0>         0.0000
      2 C2          0.2497    1.9532    5.8382 C.2       1 <0>         0.0000
      3 C3          1.8851   -1.0363   -0.1124 C.ar      1 <0>         0.0000
      4 C4          1.7997   -1.0786    2.6757 C.ar      1 <0>         0.0000
      5 C5          2.0719    2.6000    4.7258 C.2       1 <0>         0.0000
      6 C6          0.8066   -0.4630    0.5610 C.ar      1 <0>         0.0000
      7 C7          0.7638   -0.4841    1.9551 C.ar      1 <0>         0.0000
      8 C8          2.9210   -1.6309    0.6081 C.ar      1 <0>         0.0000
      9 C9          2.8783   -1.6520    2.0022 C.ar      1 <0>         0.0000
     10 C10         0.3959    1.2075    4.6917 C.2       1 <0>         0.0000
     11 C11        -0.2597    0.1505   -0.2205 C.2       1 <0>         0.0000
     12 C12        -0.4053    0.0935    4.0823 C.3       1 <0>         0.0000
     13 N1          3.6819   -3.9315   -0.5023 N.pl3     1 <0>         0.0000
     14 N2         -0.3194    0.0914    2.6559 N.pl3     1 <0>         0.0000
     15 O1         -0.9578    1.0989    0.1469 O.2       1 <0>         0.0000
     16 O2          4.3156   -1.6812   -1.5886 O.2       1 <0>         0.0000
     17 O3          5.4206   -2.3623    0.5707 O.2       1 <0>         0.0000
     18 O4          1.5043    1.5955    4.0080 O.3       1 <0>         0.0000
     19 O5         -0.4169   -0.4409   -1.4352 O.3       1 <0>         0.0000
     20 S1          4.2498   -2.3351   -0.2914 S.o2      1 <0>         0.0000
     21 Cl1         4.1349   -2.3756    2.9403 Cl        1 <0>         0.0000
     22 H1          1.5602    3.6038    6.6094 H         1 <0>         0.0000
     23 H2         -0.5410    1.8590    6.5689 H         1 <0>         0.0000
     24 H3          1.9175   -1.0191   -1.1997 H         1 <0>         0.0000
     25 H4          1.7615   -1.0924    3.7631 H         1 <0>         0.0000
     26 H5          2.9747    3.0209    4.3081 H         1 <0>         0.0000
     27 H6         -0.0517   -0.8785    4.4429 H         1 <0>         0.0000
     28 H7         -1.4630    0.1760    4.3538 H         1 <0>         0.0000
     29 H8          3.3857   -4.2160   -1.4440 H         1 <0>         0.0000
     30 H9          4.1398   -4.6794    0.0326 H         1 <0>         0.0000
     31 H10        -1.0445    0.5076    2.1046 H         1 <0>         0.0000
     32 H11        -1.1320   -0.0344   -1.9696 H         1 <0>         0.0000
@<TRIPOS>BOND
     1    1    2 1
     2    1    5 2
     3    2   10 2
     4    3    6 ar
     5    3    8 ar
     6    4    7 ar
     7    4    9 ar
     8    5   18 1
     9    6    7 ar
    10    6   11 1
    11    7   14 1
    12    8    9 ar
    13    8   20 1
    14    9   21 1
    15   10   12 1
    16   10   18 1
    17   11   15 2
    18   11   19 1
    19   12   14 1
    20   13   20 1
    21   16   20 2
    22   17   20 2
    23    1   22 1
    24    2   23 1
    25    3   24 1
    26    4   25 1
    27    5   26 1
    28   12   27 1
    29   12   28 1
    30   13   29 1
    31   13   30 1
    32   14   31 1
    33   19   32 1
@<TRIPOS>MOLECULE
*****
   32    33     0     0     0
SMALL
NO_CHARGES

@<TRIPOS>ATOM
      1 C1          1.3381    2.8577    5.8603 C.2       1 <0>         0.0000
      2 C2          0.2497    1.9532    5.8382 C.2       1 <0>         0.0000
      3 C3          1.8851   -1.0363   -0.1124 C.ar      1 <0>         0.0000
      4 C4          1.7997   -1.0786    2.6757 C.ar      1 <0>         0.0000
      5 C5          2.0719    2.6000    4.7258 C.2       1 <0>         0.0000
      6 C6          0.8066   -0.4630    0.5610 C.ar      1 <0>         0.0000
      7 C7          0.7638   -0.4841    1.9551 C.ar      1 <0>         0.0000
      8 C8          2.9210   -1.6309    0.6081 C.ar      1 <0>         0.0000
      9 C9          2.8783   -1.6520    2.0022 C.ar      1 <0>         0.0000
     10 C10         0.3959    1.2075    4.6917 C.2       1 <0>         0.0000
     11 C11        -0.2597    0.1505   -0.2205 C.2       1 <0>         0.0000
     12 C12        -0.4053    0.0935    4.0823 C.3       1 <0>         0.0000
     13 N1          5.3017   -0.9953   -0.4082 N.pl3     1 <0>         0.0000
     14 N2         -0.3194    0.0914    2.6559 N.pl3     1 <0>         0.0000
     15 O1         -0.9578    1.0989    0.1469 O.2       1 <0>         0.0000
     16 O2          4.8710   -3.3532    0.5407 O.2       1 <0>         0.0000
     17 O3          3.7708   -2.6745   -1.6219 O.2       1 <0>         0.0000
     18 O4          1.5043    1.5955    4.0080 O.3       1 <0>         0.0000
     19 O5         -0.4169   -0.4409   -1.4352 O.3       1 <0>         0.0000
     20 S1          4.2498   -2.3351   -0.2914 S.o2      1 <0>         0.0000
     21 Cl1         4.1349   -2.3756    2.9403 Cl        1 <0>         0.0000
     22 H1          1.5602    3.6038    6.6094 H         1 <0>         0.0000
     23 H2         -0.5410    1.8590    6.5689 H         1 <0>         0.0000
     24 H3          1.9175   -1.0191   -1.1997 H         1 <0>         0.0000
     25 H4          1.7615   -1.0924    3.7631 H         1 <0>         0.0000
     26 H5          2.9747    3.0209    4.3081 H         1 <0>         0.0000
     27 H6         -0.0517   -0.8785    4.4429 H         1 <0>         0.0000
     28 H7         -1.4630    0.1760    4.3538 H         1 <0>         0.0000
     29 H8          6.1638   -1.0106    0.1504 H         1 <0>         0.0000
     30 H9          5.4099   -0.5473   -1.3263 H         1 <0>         0.0000
     31 H10        -1.0445    0.5076    2.1046 H         1 <0>         0.0000
     32 H11        -1.1320   -0.0344   -1.9696 H         1 <0>         0.0000
@<TRIPOS>BOND
     1    1    2 1
     2    1    5 2
     3    2   10 2
     4    3    6 ar
     5    3    8 ar
     6    4    7 ar
     7    4    9 ar
     8    5   18 1
     9    6    7 ar
    10    6   11 1
    11    7   14 1
    12    8    9 ar
    13    8   20 1
    14    9   21 1
    15   10   12 1
    16   10   18 1
    17   11   15 2
    18   11   19 1
    19   12   14 1
    20   13   20 1
    21   16   20 2
    22   17   20 2
    23    1   22 1
    24    2   23 1
    25    3   24 1
    26    4   25 1
    27    5   26 1
    28   12   27 1
    29   12   28 1
    30   13   29 1
    31   13   30 1
    32   14   31 1
    33   19   32 1
@<TRIPOS>MOLECULE
*****
   32    33     0     0     0
SMALL
NO_CHARGES

@<TRIPOS>ATOM
      1 C1          1.3381    2.8577    5.8603 C.2       1 <0>         0.0000
      2 C2          0.2497    1.9532    5.8382 C.2       1 <0>         0.0000
      3 C3          1.8851   -1.0363   -0.1124 C.ar      1 <0>         0.0000
      4 C4          1.7997   -1.0786    2.6757 C.ar      1 <0>         0.0000
      5 C5          2.0719    2.6000    4.7258 C.2       1 <0>         0.0000
      6 C6          0.8066   -0.4630    0.5610 C.ar      1 <0>         0.0000
      7 C7          0.7638   -0.4841    1.9551 C.ar      1 <0>         0.0000
      8 C8          2.9210   -1.6309    0.6081 C.ar      1 <0>         0.0000
      9 C9          2.8783   -1.6520    2.0022 C.ar      1 <0>         0.0000
     10 C10         0.3959    1.2075    4.6917 C.2       1 <0>         0.0000
     11 C11        -0.2597    0.1505   -0.2205 C.2       1 <0>         0.0000
     12 C12        -0.4053    0.0935    4.0823 C.3       1 <0>         0.0000
     13 N1          3.7571   -2.0119   -1.8940 N.pl3     1 <0>         0.0000
     14 N2         -0.3194    0.0914    2.6559 N.pl3     1 <0>         0.0000
     15 O1         -0.9578    1.0989    0.1469 O.2       1 <0>         0.0000
     16 O2          5.4503   -1.5673   -0.0016 O.2       1 <0>         0.0000
     17 O3          4.2353   -3.7732   -0.0757 O.2       1 <0>         0.0000
     18 O4          1.5043    1.5955    4.0080 O.3       1 <0>         0.0000
     19 O5         -0.4169   -0.4409   -1.4352 O.3       1 <0>         0.0000
     20 S1          4.2498   -2.3351   -0.2914 S.o2      1 <0>         0.0000
     21 Cl1         4.1349   -2.3756    2.9403 Cl        1 <0>         0.0000
     22 H1          1.5602    3.6038    6.6094 H         1 <0>         0.0000
     23 H2         -0.5410    1.8590    6.5689 H         1 <0>         0.0000
     24 H3          1.9175   -1.0191   -1.1997 H         1 <0>         0.0000
     25 H4          1.7615   -1.0924    3.7631 H         1 <0>         0.0000
     26 H5          2.9747    3.0209    4.3081 H         1 <0>         0.0000
     27 H6         -0.0517   -0.8785    4.4429 H         1 <0>         0.0000
     28 H7         -1.4630    0.1760    4.3538 H         1 <0>         0.0000
     29 H8          4.2724   -1.2958   -2.4203 H         1 <0>         0.0000
     30 H9          3.4412   -2.8026   -2.4687 H         1 <0>         0.0000
     31 H10        -1.0445    0.5076    2.1046 H         1 <0>         0.0000
     32 H11        -1.1320   -0.0344   -1.9696 H         1 <0>         0.0000
@<TRIPOS>BOND
     1    1    2 1
     2    1    5 2
     3    2   10 2
     4    3    6 ar
     5    3    8 ar
     6    4    7 ar
     7    4    9 ar
     8    5   18 1
     9    6    7 ar
    10    6   11 1
    11    7   14 1
    12    8    9 ar
    13    8   20 1
    14    9   21 1
    15   10   12 1
    16   10   18 1
    17   11   15 2
    18   11   19 1
    19   12   14 1
    20   13   20 1
    21   16   20 2
    22   17   20 2
    23    1   22 1
    24    2   23 1
    25    3   24 1
    26    4   25 1
    27    5   26 1
    28   12   27 1
    29   12   28 1
    30   13   29 1
    31   13   30 1
    32   14   31 1
    33   19   32 1
@<TRIPOS>MOLECULE
*****
   32    33     0     0     0
SMALL
NO_CHARGES

@<TRIPOS>ATOM
      1 C1         -3.0479   -3.0761    3.8973 C.2       1 <0>         0.0000
      2 C2         -2.5393   -1.9170    3.2642 C.2       1 <0>         0.0000
      3 C3          1.8851   -1.0363   -0.1124 C.ar      1 <0>         0.0000
      4 C4          1.7997   -1.0786    2.6757 C.ar      1 <0>         0.0000
      5 C5         -2.3363   -3.2164    5.0660 C.2       1 <0>         0.0000
      6 C6          0.8066   -0.4630    0.5610 C.ar      1 <0>         0.0000
      7 C7          0.7638   -0.4841    1.9551 C.ar      1 <0>         0.0000
      8 C8          2.9210   -1.6309    0.6081 C.ar      1 <0>         0.0000
      9 C9          2.8783   -1.6520    2.0022 C.ar      1 <0>         0.0000
     10 C10        -1.5533   -1.4314    4.0913 C.2       1 <0>         0.0000
     11 C11        -0.2597    0.1505   -0.2205 C.2       1 <0>         0.0000
     12 C12        -0.6343   -0.2470    4.0080 C.3       1 <0>         0.0000
     13 N1          3.6819   -3.9315   -0.5023 N.pl3     1 <0>         0.0000
     14 N2         -0.3194    0.0914    2.6559 N.pl3     1 <0>         0.0000
     15 O1         -0.9578    1.0989    0.1469 O.2       1 <0>         0.0000
     16 O2          4.3156   -1.6812   -1.5886 O.2       1 <0>         0.0000
     17 O3          5.4206   -2.3623    0.5707 O.2       1 <0>         0.0000
     18 O4         -1.4233   -2.2178    5.1918 O.3       1 <0>         0.0000
     19 O5         -0.4169   -0.4409   -1.4352 O.3       1 <0>         0.0000
     20 S1          4.2498   -2.3351   -0.2914 S.o2      1 <0>         0.0000
     21 Cl1         4.1349   -2.3756    2.9403 Cl        1 <0>         0.0000
     22 H1         -3.8343   -3.7281    3.5457 H         1 <0>         0.0000
     23 H2         -2.8542   -1.4913    2.3220 H         1 <0>         0.0000
     24 H3          1.9175   -1.0191   -1.1997 H         1 <0>         0.0000
     25 H4          1.7615   -1.0924    3.7631 H         1 <0>         0.0000
     26 H5         -2.3579   -3.9346    5.8725 H         1 <0>         0.0000
     27 H6         -1.0920    0.6305    4.4775 H         1 <0>         0.0000
     28 H7          0.3071   -0.4425    4.5322 H         1 <0>         0.0000
     29 H8          3.3857   -4.2160   -1.4440 H         1 <0>         0.0000
     30 H9          4.1398   -4.6794    0.0326 H         1 <0>         0.0000
     31 H10        -0.8743    0.7612    2.1595 H         1 <0>         0.0000
     32 H11        -1.1320   -0.0344   -1.9696 H         1 <0>         0.0000
@<TRIPOS>BOND
     1    1    2 1
     2    1    5 2
     3    2   10 2
     4    3    6 ar
     5    3    8 ar
     6    4    7 ar
     7    4    9 ar
     8    5   18 1
     9    6    7 ar
    10    6   11 1
    11    7   14 1
    12    8    9 ar
    13    8   20 1
    14    9   21 1
    15   10   12 1
    16   10   18 1
    17   11   15 2
    18   11   19 1
    19   12   14 1
    20   13   20 1
    21   16   20 2
    22   17   20 2
    23    1   22 1
    24    2   23 1
    25    3   24 1
    26    4   25 1
    27    5   26 1
    28   12   27 1
    29   12   28 1
    30   13   29 1
    31   13   30 1
    32   14   31 1
    33   19   32 1
@<TRIPOS>MOLECULE
*****
   32    33     0     0     0
SMALL
NO_CHARGES

@<TRIPOS>ATOM
      1 C1         -3.0479   -3.0761    3.8973 C.2       1 <0>         0.0000
      2 C2         -2.5393   -1.9170    3.2642 C.2       1 <0>         0.0000
      3 C3          1.8851   -1.0363   -0.1124 C.ar      1 <0>         0.0000
      4 C4          1.7997   -1.0786    2.6757 C.ar      1 <0>         0.0000
      5 C5         -2.3363   -3.2164    5.0660 C.2       1 <0>         0.0000
      6 C6          0.8066   -0.4630    0.5610 C.ar      1 <0>         0.0000
      7 C7          0.7638   -0.4841    1.9551 C.ar      1 <0>         0.0000
      8 C8          2.9210   -1.6309    0.6081 C.ar      1 <0>         0.0000
      9 C9          2.8783   -1.6520    2.0022 C.ar      1 <0>         0.0000
     10 C10        -1.5533   -1.4314    4.0913 C.2       1 <0>         0.0000
     11 C11        -0.2597    0.1505   -0.2205 C.2       1 <0>         0.0000
     12 C12        -0.6343   -0.2470    4.0080 C.3       1 <0>         0.0000
     13 N1          5.3017   -0.9953   -0.4082 N.pl3     1 <0>         0.0000
     14 N2         -0.3194    0.0914    2.6559 N.pl3     1 <0>         0.0000
     15 O1         -0.9578    1.0989    0.1469 O.2       1 <0>         0.0000
     16 O2          4.8710   -3.3532    0.5407 O.2       1 <0>         0.0000
     17 O3          3.7708   -2.6745   -1.6219 O.2       1 <0>         0.0000
     18 O4         -1.4233   -2.2178    5.1918 O.3       1 <0>         0.0000
     19 O5         -0.4169   -0.4409   -1.4352 O.3       1 <0>         0.0000
     20 S1          4.2498   -2.3351   -0.2914 S.o2      1 <0>         0.0000
     21 Cl1         4.1349   -2.3756    2.9403 Cl        1 <0>         0.0000
     22 H1         -3.8343   -3.7281    3.5457 H         1 <0>         0.0000
     23 H2         -2.8542   -1.4913    2.3220 H         1 <0>         0.0000
     24 H3          1.9175   -1.0191   -1.1997 H         1 <0>         0.0000
     25 H4          1.7615   -1.0924    3.7631 H         1 <0>         0.0000
     26 H5         -2.3579   -3.9346    5.8725 H         1 <0>         0.0000
     27 H6         -1.0920    0.6305    4.4775 H         1 <0>         0.0000
     28 H7          0.3071   -0.4425    4.5322 H         1 <0>         0.0000
     29 H8          6.1638   -1.0106    0.1504 H         1 <0>         0.0000
     30 H9          5.4099   -0.5473   -1.3263 H         1 <0>         0.0000
     31 H10        -0.8743    0.7612    2.1595 H         1 <0>         0.0000
     32 H11        -1.1320   -0.0344   -1.9696 H         1 <0>         0.0000
@<TRIPOS>BOND
     1    1    2 1
     2    1    5 2
     3    2   10 2
     4    3    6 ar
     5    3    8 ar
     6    4    7 ar
     7    4    9 ar
     8    5   18 1
     9    6    7 ar
    10    6   11 1
    11    7   14 1
    12    8    9 ar
    13    8   20 1
    14    9   21 1
    15   10   12 1
    16   10   18 1
    17   11   15 2
    18   11   19 1
    19   12   14 1
    20   13   20 1
    21   16   20 2
    22   17   20 2
    23    1   22 1
    24    2   23 1
    25    3   24 1
    26    4   25 1
    27    5   26 1
    28   12   27 1
    29   12   28 1
    30   13   29 1
    31   13   30 1
    32   14   31 1
    33   19   32 1
@<TRIPOS>MOLECULE
*****
   32    33     0     0     0
SMALL
NO_CHARGES

@<TRIPOS>ATOM
      1 C1          1.5444    3.7351    4.1620 C.2       1 <0>         0.0000
      2 C2          1.3592    2.5036    3.4894 C.2       1 <0>         0.0000
      3 C3          1.8851   -1.0363   -0.1124 C.ar      1 <0>         0.0000
      4 C4          1.7997   -1.0786    2.6757 C.ar      1 <0>         0.0000
      5 C5          0.6898    3.7142    5.2395 C.2       1 <0>         0.0000
      6 C6          0.8066   -0.4630    0.5610 C.ar      1 <0>         0.0000
      7 C7          0.7638   -0.4841    1.9551 C.ar      1 <0>         0.0000
      8 C8          2.9210   -1.6309    0.6081 C.ar      1 <0>         0.0000
      9 C9          2.8783   -1.6520    2.0022 C.ar      1 <0>         0.0000
     10 C10         0.4047    1.8179    4.2040 C.2       1 <0>         0.0000
     11 C11        -0.2597    0.1505   -0.2205 C.2       1 <0>         0.0000
     12 C12        -0.2376    0.4719    4.0308 C.3       1 <0>         0.0000
     13 N1          3.6819   -3.9315   -0.5023 N.pl3     1 <0>         0.0000
     14 N2         -0.3194    0.0914    2.6559 N.pl3     1 <0>         0.0000
     15 O1         -1.4445   -0.1926   -0.2028 O.2       1 <0>         0.0000
     16 O2          4.3156   -1.6812   -1.5886 O.2       1 <0>         0.0000
     17 O3          5.4206   -2.3623    0.5707 O.2       1 <0>         0.0000
     18 O4         -0.0085    2.5489    5.2724 O.3       1 <0>         0.0000
     19 O5          0.1902    1.1727   -0.9968 O.3       1 <0>         0.0000
     20 S1          4.2498   -2.3351   -0.2914 S.o2      1 <0>         0.0000
     21 Cl1         4.1349   -2.3756    2.9403 Cl        1 <0>         0.0000
     22 H1          2.2164    4.5377    3.8947 H         1 <0>         0.0000
     23 H2          1.8603    2.1618    2.5950 H         1 <0>         0.0000
     24 H3          1.9175   -1.0191   -1.1997 H         1 <0>         0.0000
     25 H4          1.7615   -1.0924    3.7631 H         1 <0>         0.0000
     26 H5          0.4716    4.4126    6.0340 H         1 <0>         0.0000
     27 H6          0.3325   -0.2990    4.5608 H         1 <0>         0.0000
     28 H7         -1.2529    0.4652    4.4410 H         1 <0>         0.0000
     29 H8          3.3857   -4.2160   -1.4440 H         1 <0>         0.0000
     30 H9          4.1398   -4.6794    0.0326 H         1 <0>         0.0000
     31 H10        -1.1691    0.2259    2.1433 H         1 <0>         0.0000
     32 H11        -0.5205    1.5931   -1.5264 H         1 <0>         0.0000
@<TRIPOS>BOND
     1    1    2 1
     2    1    5 2
     3    2   10 2
     4    3    6 ar
     5    3    8 ar
     6    4    7 ar
     7    4    9 ar
     8    5   18 1
     9    6    7 ar
    10    6   11 1
    11    7   14 1
    12    8    9 ar
    13    8   20 1
    14    9   21 1
    15   10   12 1
    16   10   18 1
    17   11   15 2
    18   11   19 1
    19   12   14 1
    20   13   20 1
    21   16   20 2
    22   17   20 2
    23    1   22 1
    24    2   23 1
    25    3   24 1
    26    4   25 1
    27    5   26 1
    28   12   27 1
    29   12   28 1
    30   13   29 1
    31   13   30 1
    32   14   31 1
    33   19   32 1
@<TRIPOS>MOLECULE
*****
   32    33     0     0     0
SMALL
NO_CHARGES

@<TRIPOS>ATOM
      1 C1          1.5444    3.7351    4.1620 C.2       1 <0>         0.0000
      2 C2          1.3592    2.5036    3.4894 C.2       1 <0>         0.0000
      3 C3          1.8851   -1.0363   -0.1124 C.ar      1 <0>         0.0000
      4 C4          1.7997   -1.0786    2.6757 C.ar      1 <0>         0.0000
      5 C5          0.6898    3.7142    5.2395 C.2       1 <0>         0.0000
      6 C6          0.8066   -0.4630    0.5610 C.ar      1 <0>         0.0000
      7 C7          0.7638   -0.4841    1.9551 C.ar      1 <0>         0.0000
      8 C8          2.9210   -1.6309    0.6081 C.ar      1 <0>         0.0000
      9 C9          2.8783   -1.6520    2.0022 C.ar      1 <0>         0.0000
     10 C10         0.4047    1.8179    4.2040 C.2       1 <0>         0.0000
     11 C11        -0.2597    0.1505   -0.2205 C.2       1 <0>         0.0000
     12 C12        -0.2376    0.4719    4.0308 C.3       1 <0>         0.0000
     13 N1          5.3017   -0.9953   -0.4082 N.pl3     1 <0>         0.0000
     14 N2         -0.3194    0.0914    2.6559 N.pl3     1 <0>         0.0000
     15 O1         -1.4445   -0.1926   -0.2028 O.2       1 <0>         0.0000
     16 O2          4.8710   -3.3532    0.5407 O.2       1 <0>         0.0000
     17 O3          3.7708   -2.6745   -1.6219 O.2       1 <0>         0.0000
     18 O4         -0.0085    2.5489    5.2724 O.3       1 <0>         0.0000
     19 O5          0.1902    1.1727   -0.9968 O.3       1 <0>         0.0000
     20 S1          4.2498   -2.3351   -0.2914 S.o2      1 <0>         0.0000
     21 Cl1         4.1349   -2.3756    2.9403 Cl        1 <0>         0.0000
     22 H1          2.2164    4.5377    3.8947 H         1 <0>         0.0000
     23 H2          1.8603    2.1618    2.5950 H         1 <0>         0.0000
     24 H3          1.9175   -1.0191   -1.1997 H         1 <0>         0.0000
     25 H4          1.7615   -1.0924    3.7631 H         1 <0>         0.0000
     26 H5          0.4716    4.4126    6.0340 H         1 <0>         0.0000
     27 H6          0.3325   -0.2990    4.5608 H         1 <0>         0.0000
     28 H7         -1.2529    0.4652    4.4410 H         1 <0>         0.0000
     29 H8          6.1638   -1.0106    0.1504 H         1 <0>         0.0000
     30 H9          5.4099   -0.5473   -1.3263 H         1 <0>         0.0000
     31 H10        -1.1691    0.2259    2.1433 H         1 <0>         0.0000
     32 H11        -0.5205    1.5931   -1.5264 H         1 <0>         0.0000
@<TRIPOS>BOND
     1    1    2 1
     2    1    5 2
     3    2   10 2
     4    3    6 ar
     5    3    8 ar
     6    4    7 ar
     7    4    9 ar
     8    5   18 1
     9    6    7 ar
    10    6   11 1
    11    7   14 1
    12    8    9 ar
    13    8   20 1
    14    9   21 1
    15   10   12 1
    16   10   18 1
    17   11   15 2
    18   11   19 1
    19   12   14 1
    20   13   20 1
    21   16   20 2
    22   17   20 2
    23    1   22 1
    24    2   23 1
    25    3   24 1
    26    4   25 1
    27    5   26 1
    28   12   27 1
    29   12   28 1
    30   13   29 1
    31   13   30 1
    32   14   31 1
    33   19   32 1
@<TRIPOS>MOLECULE
*****
   32    33     0     0     0
SMALL
NO_CHARGES

@<TRIPOS>ATOM
      1 C1         -3.0479   -3.0761    3.8973 C.2       1 <0>         0.0000
      2 C2         -2.5393   -1.9170    3.2642 C.2       1 <0>         0.0000
      3 C3          1.8851   -1.0363   -0.1124 C.ar      1 <0>         0.0000
      4 C4          1.7997   -1.0786    2.6757 C.ar      1 <0>         0.0000
      5 C5         -2.3363   -3.2164    5.0660 C.2       1 <0>         0.0000
      6 C6          0.8066   -0.4630    0.5610 C.ar      1 <0>         0.0000
      7 C7          0.7638   -0.4841    1.9551 C.ar      1 <0>         0.0000
      8 C8          2.9210   -1.6309    0.6081 C.ar      1 <0>         0.0000
      9 C9          2.8783   -1.6520    2.0022 C.ar      1 <0>         0.0000
     10 C10        -1.5533   -1.4314    4.0913 C.2       1 <0>         0.0000
     11 C11        -0.2597    0.1505   -0.2205 C.2       1 <0>         0.0000
     12 C12        -0.6343   -0.2470    4.0080 C.3       1 <0>         0.0000
     13 N1          3.7571   -2.0119   -1.8940 N.pl3     1 <0>         0.0000
     14 N2         -0.3194    0.0914    2.6559 N.pl3     1 <0>         0.0000
     15 O1         -0.9578    1.0989    0.1469 O.2       1 <0>         0.0000
     16 O2          5.4503   -1.5673   -0.0016 O.2       1 <0>         0.0000
     17 O3          4.2353   -3.7732   -0.0757 O.2       1 <0>         0.0000
     18 O4         -1.4233   -2.2178    5.1918 O.3       1 <0>         0.0000
     19 O5         -0.4169   -0.4409   -1.4352 O.3       1 <0>         0.0000
     20 S1          4.2498   -2.3351   -0.2914 S.o2      1 <0>         0.0000
     21 Cl1         4.1349   -2.3756    2.9403 Cl        1 <0>         0.0000
     22 H1         -3.8343   -3.7281    3.5457 H         1 <0>         0.0000
     23 H2         -2.8542   -1.4913    2.3220 H         1 <0>         0.0000
     24 H3          1.9175   -1.0191   -1.1997 H         1 <0>         0.0000
     25 H4          1.7615   -1.0924    3.7631 H         1 <0>         0.0000
     26 H5         -2.3579   -3.9346    5.8725 H         1 <0>         0.0000
     27 H6         -1.0920    0.6305    4.4775 H         1 <0>         0.0000
     28 H7          0.3071   -0.4425    4.5322 H         1 <0>         0.0000
     29 H8          4.2724   -1.2958   -2.4203 H         1 <0>         0.0000
     30 H9          3.4412   -2.8026   -2.4687 H         1 <0>         0.0000
     31 H10        -0.8743    0.7612    2.1595 H         1 <0>         0.0000
     32 H11        -1.1320   -0.0344   -1.9696 H         1 <0>         0.0000
@<TRIPOS>BOND
     1    1    2 1
     2    1    5 2
     3    2   10 2
     4    3    6 ar
     5    3    8 ar
     6    4    7 ar
     7    4    9 ar
     8    5   18 1
     9    6    7 ar
    10    6   11 1
    11    7   14 1
    12    8    9 ar
    13    8   20 1
    14    9   21 1
    15   10   12 1
    16   10   18 1
    17   11   15 2
    18   11   19 1
    19   12   14 1
    20   13   20 1
    21   16   20 2
    22   17   20 2
    23    1   22 1
    24    2   23 1
    25    3   24 1
    26    4   25 1
    27    5   26 1
    28   12   27 1
    29   12   28 1
    30   13   29 1
    31   13   30 1
    32   14   31 1
    33   19   32 1
@<TRIPOS>MOLECULE
*****
   32    33     0     0     0
SMALL
NO_CHARGES

@<TRIPOS>ATOM
      1 C1         -2.4688   -1.7279    6.0368 C.2       1 <0>         0.0000
      2 C2         -1.3766   -1.6352    5.1414 C.2       1 <0>         0.0000
      3 C3          1.8851   -1.0363   -0.1124 C.ar      1 <0>         0.0000
      4 C4          1.7997   -1.0786    2.6757 C.ar      1 <0>         0.0000
      5 C5         -2.8874   -0.4374    6.2635 C.2       1 <0>         0.0000
      6 C6          0.8066   -0.4630    0.5610 C.ar      1 <0>         0.0000
      7 C7          0.7638   -0.4841    1.9551 C.ar      1 <0>         0.0000
      8 C8          2.9210   -1.6309    0.6081 C.ar      1 <0>         0.0000
      9 C9          2.8783   -1.6520    2.0022 C.ar      1 <0>         0.0000
     10 C10        -1.2059   -0.2947    4.8845 C.2       1 <0>         0.0000
     11 C11        -0.2597    0.1505   -0.2205 C.2       1 <0>         0.0000
     12 C12        -0.2376    0.4719    4.0308 C.3       1 <0>         0.0000
     13 N1          3.6819   -3.9315   -0.5023 N.pl3     1 <0>         0.0000
     14 N2         -0.3194    0.0914    2.6559 N.pl3     1 <0>         0.0000
     15 O1         -0.9578    1.0989    0.1469 O.2       1 <0>         0.0000
     16 O2          4.3156   -1.6812   -1.5886 O.2       1 <0>         0.0000
     17 O3          5.4206   -2.3623    0.5707 O.2       1 <0>         0.0000
     18 O4         -2.1229    0.4422    5.5647 O.3       1 <0>         0.0000
     19 O5         -0.4169   -0.4409   -1.4352 O.3       1 <0>         0.0000
     20 S1          4.2498   -2.3351   -0.2914 S.o2      1 <0>         0.0000
     21 Cl1         4.1349   -2.3756    2.9403 Cl        1 <0>         0.0000
     22 H1         -2.8970   -2.6231    6.4639 H         1 <0>         0.0000
     23 H2         -0.7889   -2.4465    4.7360 H         1 <0>         0.0000
     24 H3          1.9175   -1.0191   -1.1997 H         1 <0>         0.0000
     25 H4          1.7615   -1.0924    3.7631 H         1 <0>         0.0000
     26 H5         -3.6726   -0.0009    6.8632 H         1 <0>         0.0000
     27 H6         -0.4339    1.5477    4.0953 H         1 <0>         0.0000
     28 H7          0.7932    0.3089    4.3625 H         1 <0>         0.0000
     29 H8          3.3857   -4.2160   -1.4440 H         1 <0>         0.0000
     30 H9          4.1398   -4.6794    0.0326 H         1 <0>         0.0000
     31 H10        -1.1691    0.2259    2.1433 H         1 <0>         0.0000
     32 H11        -1.1320   -0.0344   -1.9696 H         1 <0>         0.0000
@<TRIPOS>BOND
     1    1    2 1
     2    1    5 2
     3    2   10 2
     4    3    6 ar
     5    3    8 ar
     6    4    7 ar
     7    4    9 ar
     8    5   18 1
     9    6    7 ar
    10    6   11 1
    11    7   14 1
    12    8    9 ar
    13    8   20 1
    14    9   21 1
    15   10   12 1
    16   10   18 1
    17   11   15 2
    18   11   19 1
    19   12   14 1
    20   13   20 1
    21   16   20 2
    22   17   20 2
    23    1   22 1
    24    2   23 1
    25    3   24 1
    26    4   25 1
    27    5   26 1
    28   12   27 1
    29   12   28 1
    30   13   29 1
    31   13   30 1
    32   14   31 1
    33   19   32 1
@<TRIPOS>MOLECULE
*****
   32    33     0     0     0
SMALL
NO_CHARGES

@<TRIPOS>ATOM
      1 C1         -2.7825   -1.1099    6.2359 C.2       1 <0>         0.0000
      2 C2         -2.2484    0.0851    5.6975 C.2       1 <0>         0.0000
      3 C3          1.8851   -1.0363   -0.1124 C.ar      1 <0>         0.0000
      4 C4          1.7997   -1.0786    2.6757 C.ar      1 <0>         0.0000
      5 C5         -2.0284   -2.1348    5.7135 C.2       1 <0>         0.0000
      6 C6          0.8066   -0.4630    0.5610 C.ar      1 <0>         0.0000
      7 C7          0.7638   -0.4841    1.9551 C.ar      1 <0>         0.0000
      8 C8          2.9210   -1.6309    0.6081 C.ar      1 <0>         0.0000
      9 C9          2.8783   -1.6520    2.0022 C.ar      1 <0>         0.0000
     10 C10        -1.2059   -0.2947    4.8845 C.2       1 <0>         0.0000
     11 C11        -0.2597    0.1505   -0.2205 C.2       1 <0>         0.0000
     12 C12        -0.2376    0.4719    4.0308 C.3       1 <0>         0.0000
     13 N1          3.6819   -3.9315   -0.5023 N.pl3     1 <0>         0.0000
     14 N2         -0.3194    0.0914    2.6559 N.pl3     1 <0>         0.0000
     15 O1         -0.9578    1.0989    0.1469 O.2       1 <0>         0.0000
     16 O2          4.3156   -1.6812   -1.5886 O.2       1 <0>         0.0000
     17 O3          5.4206   -2.3623    0.5707 O.2       1 <0>         0.0000
     18 O4         -1.0652   -1.6463    4.8889 O.3       1 <0>         0.0000
     19 O5         -0.4169   -0.4409   -1.4352 O.3       1 <0>         0.0000
     20 S1          4.2498   -2.3351   -0.2914 S.o2      1 <0>         0.0000
     21 Cl1         4.1349   -2.3756    2.9403 Cl        1 <0>         0.0000
     22 H1         -3.6134   -1.2116    6.9190 H         1 <0>         0.0000
     23 H2         -2.5842    1.0958    5.8808 H         1 <0>         0.0000
     24 H3          1.9175   -1.0191   -1.1997 H         1 <0>         0.0000
     25 H4          1.7615   -1.0924    3.7631 H         1 <0>         0.0000
     26 H5         -2.0487   -3.2090    5.8240 H         1 <0>         0.0000
     27 H6         -0.4339    1.5477    4.0953 H         1 <0>         0.0000
     28 H7          0.7932    0.3089    4.3625 H         1 <0>         0.0000
     29 H8          3.3857   -4.2160   -1.4440 H         1 <0>         0.0000
     30 H9          4.1398   -4.6794    0.0326 H         1 <0>         0.0000
     31 H10        -1.1691    0.2259    2.1433 H         1 <0>         0.0000
     32 H11        -1.1320   -0.0344   -1.9696 H         1 <0>         0.0000
@<TRIPOS>BOND
     1    1    2 1
     2    1    5 2
     3    2   10 2
     4    3    6 ar
     5    3    8 ar
     6    4    7 ar
     7    4    9 ar
     8    5   18 1
     9    6    7 ar
    10    6   11 1
    11    7   14 1
    12    8    9 ar
    13    8   20 1
    14    9   21 1
    15   10   12 1
    16   10   18 1
    17   11   15 2
    18   11   19 1
    19   12   14 1
    20   13   20 1
    21   16   20 2
    22   17   20 2
    23    1   22 1
    24    2   23 1
    25    3   24 1
    26    4   25 1
    27    5   26 1
    28   12   27 1
    29   12   28 1
    30   13   29 1
    31   13   30 1
    32   14   31 1
    33   19   32 1
@<TRIPOS>MOLECULE
*****
   32    33     0     0     0
SMALL
NO_CHARGES

@<TRIPOS>ATOM
      1 C1         -2.7537   -3.2599    4.5295 C.2       1 <0>         0.0000
      2 C2         -1.7188   -2.4299    5.0227 C.2       1 <0>         0.0000
      3 C3          1.8851   -1.0363   -0.1124 C.ar      1 <0>         0.0000
      4 C4          1.7997   -1.0786    2.6757 C.ar      1 <0>         0.0000
      5 C5         -3.1469   -2.7093    3.3319 C.2       1 <0>         0.0000
      6 C6          0.8066   -0.4630    0.5610 C.ar      1 <0>         0.0000
      7 C7          0.7638   -0.4841    1.9551 C.ar      1 <0>         0.0000
      8 C8          2.9210   -1.6309    0.6081 C.ar      1 <0>         0.0000
      9 C9          2.8783   -1.6520    2.0022 C.ar      1 <0>         0.0000
     10 C10        -1.5533   -1.4314    4.0913 C.2       1 <0>         0.0000
     11 C11        -0.2597    0.1505   -0.2205 C.2       1 <0>         0.0000
     12 C12        -0.6343   -0.2470    4.0080 C.3       1 <0>         0.0000
     13 N1          3.6819   -3.9315   -0.5023 N.pl3     1 <0>         0.0000
     14 N2         -0.3194    0.0914    2.6559 N.pl3     1 <0>         0.0000
     15 O1         -0.9578    1.0989    0.1469 O.2       1 <0>         0.0000
     16 O2          4.3156   -1.6812   -1.5886 O.2       1 <0>         0.0000
     17 O3          5.4206   -2.3623    0.5707 O.2       1 <0>         0.0000
     18 O4         -2.4200   -1.5945    3.0575 O.3       1 <0>         0.0000
     19 O5         -0.4169   -0.4409   -1.4352 O.3       1 <0>         0.0000
     20 S1          4.2498   -2.3351   -0.2914 S.o2      1 <0>         0.0000
     21 Cl1         4.1349   -2.3756    2.9403 Cl        1 <0>         0.0000
     22 H1         -3.1622   -4.1481    4.9894 H         1 <0>         0.0000
     23 H2         -1.1649   -2.5474    5.9432 H         1 <0>         0.0000
     24 H3          1.9175   -1.0191   -1.1997 H         1 <0>         0.0000
     25 H4          1.7615   -1.0924    3.7631 H         1 <0>         0.0000
     26 H5         -3.8898   -2.9764    2.5947 H         1 <0>         0.0000
     27 H6         -1.0920    0.6305    4.4775 H         1 <0>         0.0000
     28 H7          0.3071   -0.4425    4.5322 H         1 <0>         0.0000
     29 H8          3.3857   -4.2160   -1.4440 H         1 <0>         0.0000
     30 H9          4.1398   -4.6794    0.0326 H         1 <0>         0.0000
     31 H10        -0.8743    0.7612    2.1595 H         1 <0>         0.0000
     32 H11        -1.1320   -0.0344   -1.9696 H         1 <0>         0.0000
@<TRIPOS>BOND
     1    1    2 1
     2    1    5 2
     3    2   10 2
     4    3    6 ar
     5    3    8 ar
     6    4    7 ar
     7    4    9 ar
     8    5   18 1
     9    6    7 ar
    10    6   11 1
    11    7   14 1
    12    8    9 ar
    13    8   20 1
    14    9   21 1
    15   10   12 1
    16   10   18 1
    17   11   15 2
    18   11   19 1
    19   12   14 1
    20   13   20 1
    21   16   20 2
    22   17   20 2
    23    1   22 1
    24    2   23 1
    25    3   24 1
    26    4   25 1
    27    5   26 1
    28   12   27 1
    29   12   28 1
    30   13   29 1
    31   13   30 1
    32   14   31 1
    33   19   32 1
@<TRIPOS>MOLECULE
*****
   32    33     0     0     0
SMALL
NO_CHARGES

@<TRIPOS>ATOM
      1 C1         -2.4688   -1.7279    6.0368 C.2       1 <0>         0.0000
      2 C2         -1.3766   -1.6352    5.1414 C.2       1 <0>         0.0000
      3 C3          1.8851   -1.0363   -0.1124 C.ar      1 <0>         0.0000
      4 C4          1.7997   -1.0786    2.6757 C.ar      1 <0>         0.0000
      5 C5         -2.8874   -0.4374    6.2635 C.2       1 <0>         0.0000
      6 C6          0.8066   -0.4630    0.5610 C.ar      1 <0>         0.0000
      7 C7          0.7638   -0.4841    1.9551 C.ar      1 <0>         0.0000
      8 C8          2.9210   -1.6309    0.6081 C.ar      1 <0>         0.0000
      9 C9          2.8783   -1.6520    2.0022 C.ar      1 <0>         0.0000
     10 C10        -1.2059   -0.2947    4.8845 C.2       1 <0>         0.0000
     11 C11        -0.2597    0.1505   -0.2205 C.2       1 <0>         0.0000
     12 C12        -0.2376    0.4719    4.0308 C.3       1 <0>         0.0000
     13 N1          5.3017   -0.9953   -0.4082 N.pl3     1 <0>         0.0000
     14 N2         -0.3194    0.0914    2.6559 N.pl3     1 <0>         0.0000
     15 O1         -0.9578    1.0989    0.1469 O.2       1 <0>         0.0000
     16 O2          4.8710   -3.3532    0.5407 O.2       1 <0>         0.0000
     17 O3          3.7708   -2.6745   -1.6219 O.2       1 <0>         0.0000
     18 O4         -2.1229    0.4422    5.5647 O.3       1 <0>         0.0000
     19 O5         -0.4169   -0.4409   -1.4352 O.3       1 <0>         0.0000
     20 S1          4.2498   -2.3351   -0.2914 S.o2      1 <0>         0.0000
     21 Cl1         4.1349   -2.3756    2.9403 Cl        1 <0>         0.0000
     22 H1         -2.8970   -2.6231    6.4639 H         1 <0>         0.0000
     23 H2         -0.7889   -2.4465    4.7360 H         1 <0>         0.0000
     24 H3          1.9175   -1.0191   -1.1997 H         1 <0>         0.0000
     25 H4          1.7615   -1.0924    3.7631 H         1 <0>         0.0000
     26 H5         -3.6726   -0.0009    6.8632 H         1 <0>         0.0000
     27 H6         -0.4339    1.5477    4.0953 H         1 <0>         0.0000
     28 H7          0.7932    0.3089    4.3625 H         1 <0>         0.0000
     29 H8          6.1638   -1.0106    0.1504 H         1 <0>         0.0000
     30 H9          5.4099   -0.5473   -1.3263 H         1 <0>         0.0000
     31 H10        -1.1691    0.2259    2.1433 H         1 <0>         0.0000
     32 H11        -1.1320   -0.0344   -1.9696 H         1 <0>         0.0000
@<TRIPOS>BOND
     1    1    2 1
     2    1    5 2
     3    2   10 2
     4    3    6 ar
     5    3    8 ar
     6    4    7 ar
     7    4    9 ar
     8    5   18 1
     9    6    7 ar
    10    6   11 1
    11    7   14 1
    12    8    9 ar
    13    8   20 1
    14    9   21 1
    15   10   12 1
    16   10   18 1
    17   11   15 2
    18   11   19 1
    19   12   14 1
    20   13   20 1
    21   16   20 2
    22   17   20 2
    23    1   22 1
    24    2   23 1
    25    3   24 1
    26    4   25 1
    27    5   26 1
    28   12   27 1
    29   12   28 1
    30   13   29 1
    31   13   30 1
    32   14   31 1
    33   19   32 1
@<TRIPOS>MOLECULE
*****
   32    33     0     0     0
SMALL
NO_CHARGES

@<TRIPOS>ATOM
      1 C1         -2.7825   -1.1099    6.2359 C.2       1 <0>         0.0000
      2 C2         -2.2484    0.0851    5.6975 C.2       1 <0>         0.0000
      3 C3          1.8851   -1.0363   -0.1124 C.ar      1 <0>         0.0000
      4 C4          1.7997   -1.0786    2.6757 C.ar      1 <0>         0.0000
      5 C5         -2.0284   -2.1348    5.7135 C.2       1 <0>         0.0000
      6 C6          0.8066   -0.4630    0.5610 C.ar      1 <0>         0.0000
      7 C7          0.7638   -0.4841    1.9551 C.ar      1 <0>         0.0000
      8 C8          2.9210   -1.6309    0.6081 C.ar      1 <0>         0.0000
      9 C9          2.8783   -1.6520    2.0022 C.ar      1 <0>         0.0000
     10 C10        -1.2059   -0.2947    4.8845 C.2       1 <0>         0.0000
     11 C11        -0.2597    0.1505   -0.2205 C.2       1 <0>         0.0000
     12 C12        -0.2376    0.4719    4.0308 C.3       1 <0>         0.0000
     13 N1          5.3017   -0.9953   -0.4082 N.pl3     1 <0>         0.0000
     14 N2         -0.3194    0.0914    2.6559 N.pl3     1 <0>         0.0000
     15 O1         -0.9578    1.0989    0.1469 O.2       1 <0>         0.0000
     16 O2          4.8710   -3.3532    0.5407 O.2       1 <0>         0.0000
     17 O3          3.7708   -2.6745   -1.6219 O.2       1 <0>         0.0000
     18 O4         -1.0652   -1.6463    4.8889 O.3       1 <0>         0.0000
     19 O5         -0.4169   -0.4409   -1.4352 O.3       1 <0>         0.0000
     20 S1          4.2498   -2.3351   -0.2914 S.o2      1 <0>         0.0000
     21 Cl1         4.1349   -2.3756    2.9403 Cl        1 <0>         0.0000
     22 H1         -3.6134   -1.2116    6.9190 H         1 <0>         0.0000
     23 H2         -2.5842    1.0958    5.8808 H         1 <0>         0.0000
     24 H3          1.9175   -1.0191   -1.1997 H         1 <0>         0.0000
     25 H4          1.7615   -1.0924    3.7631 H         1 <0>         0.0000
     26 H5         -2.0487   -3.2090    5.8240 H         1 <0>         0.0000
     27 H6         -0.4339    1.5477    4.0953 H         1 <0>         0.0000
     28 H7          0.7932    0.3089    4.3625 H         1 <0>         0.0000
     29 H8          6.1638   -1.0106    0.1504 H         1 <0>         0.0000
     30 H9          5.4099   -0.5473   -1.3263 H         1 <0>         0.0000
     31 H10        -1.1691    0.2259    2.1433 H         1 <0>         0.0000
     32 H11        -1.1320   -0.0344   -1.9696 H         1 <0>         0.0000
@<TRIPOS>BOND
     1    1    2 1
     2    1    5 2
     3    2   10 2
     4    3    6 ar
     5    3    8 ar
     6    4    7 ar
     7    4    9 ar
     8    5   18 1
     9    6    7 ar
    10    6   11 1
    11    7   14 1
    12    8    9 ar
    13    8   20 1
    14    9   21 1
    15   10   12 1
    16   10   18 1
    17   11   15 2
    18   11   19 1
    19   12   14 1
    20   13   20 1
    21   16   20 2
    22   17   20 2
    23    1   22 1
    24    2   23 1
    25    3   24 1
    26    4   25 1
    27    5   26 1
    28   12   27 1
    29   12   28 1
    30   13   29 1
    31   13   30 1
    32   14   31 1
    33   19   32 1
@<TRIPOS>MOLECULE
*****
   32    33     0     0     0
SMALL
NO_CHARGES

@<TRIPOS>ATOM
      1 C1          1.5444    3.7351    4.1620 C.2       1 <0>         0.0000
      2 C2          1.3592    2.5036    3.4894 C.2       1 <0>         0.0000
      3 C3          1.8851   -1.0363   -0.1124 C.ar      1 <0>         0.0000
      4 C4          1.7997   -1.0786    2.6757 C.ar      1 <0>         0.0000
      5 C5          0.6898    3.7142    5.2395 C.2       1 <0>         0.0000
      6 C6          0.8066   -0.4630    0.5610 C.ar      1 <0>         0.0000
      7 C7          0.7638   -0.4841    1.9551 C.ar      1 <0>         0.0000
      8 C8          2.9210   -1.6309    0.6081 C.ar      1 <0>         0.0000
      9 C9          2.8783   -1.6520    2.0022 C.ar      1 <0>         0.0000
     10 C10         0.4047    1.8179    4.2040 C.2       1 <0>         0.0000
     11 C11        -0.2597    0.1505   -0.2205 C.2       1 <0>         0.0000
     12 C12        -0.2376    0.4719    4.0308 C.3       1 <0>         0.0000
     13 N1          3.7571   -2.0119   -1.8940 N.pl3     1 <0>         0.0000
     14 N2         -0.3194    0.0914    2.6559 N.pl3     1 <0>         0.0000
     15 O1         -1.4445   -0.1926   -0.2028 O.2       1 <0>         0.0000
     16 O2          5.4503   -1.5673   -0.0016 O.2       1 <0>         0.0000
     17 O3          4.2353   -3.7732   -0.0757 O.2       1 <0>         0.0000
     18 O4         -0.0085    2.5489    5.2724 O.3       1 <0>         0.0000
     19 O5          0.1902    1.1727   -0.9968 O.3       1 <0>         0.0000
     20 S1          4.2498   -2.3351   -0.2914 S.o2      1 <0>         0.0000
     21 Cl1         4.1349   -2.3756    2.9403 Cl        1 <0>         0.0000
     22 H1          2.2164    4.5377    3.8947 H         1 <0>         0.0000
     23 H2          1.8603    2.1618    2.5950 H         1 <0>         0.0000
     24 H3          1.9175   -1.0191   -1.1997 H         1 <0>         0.0000
     25 H4          1.7615   -1.0924    3.7631 H         1 <0>         0.0000
     26 H5          0.4716    4.4126    6.0340 H         1 <0>         0.0000
     27 H6          0.3325   -0.2990    4.5608 H         1 <0>         0.0000
     28 H7         -1.2529    0.4652    4.4410 H         1 <0>         0.0000
     29 H8          4.2724   -1.2958   -2.4203 H         1 <0>         0.0000
     30 H9          3.4412   -2.8026   -2.4687 H         1 <0>         0.0000
     31 H10        -1.1691    0.2259    2.1433 H         1 <0>         0.0000
     32 H11        -0.5205    1.5931   -1.5264 H         1 <0>         0.0000
@<TRIPOS>BOND
     1    1    2 1
     2    1    5 2
     3    2   10 2
     4    3    6 ar
     5    3    8 ar
     6    4    7 ar
     7    4    9 ar
     8    5   18 1
     9    6    7 ar
    10    6   11 1
    11    7   14 1
    12    8    9 ar
    13    8   20 1
    14    9   21 1
    15   10   12 1
    16   10   18 1
    17   11   15 2
    18   11   19 1
    19   12   14 1
    20   13   20 1
    21   16   20 2
    22   17   20 2
    23    1   22 1
    24    2   23 1
    25    3   24 1
    26    4   25 1
    27    5   26 1
    28   12   27 1
    29   12   28 1
    30   13   29 1
    31   13   30 1
    32   14   31 1
    33   19   32 1
@<TRIPOS>MOLECULE
*****
   32    33     0     0     0
SMALL
NO_CHARGES

@<TRIPOS>ATOM
      1 C1         -2.7537   -3.2599    4.5295 C.2       1 <0>         0.0000
      2 C2         -1.7188   -2.4299    5.0227 C.2       1 <0>         0.0000
      3 C3          1.8851   -1.0363   -0.1124 C.ar      1 <0>         0.0000
      4 C4          1.7997   -1.0786    2.6757 C.ar      1 <0>         0.0000
      5 C5         -3.1469   -2.7093    3.3319 C.2       1 <0>         0.0000
      6 C6          0.8066   -0.4630    0.5610 C.ar      1 <0>         0.0000
      7 C7          0.7638   -0.4841    1.9551 C.ar      1 <0>         0.0000
      8 C8          2.9210   -1.6309    0.6081 C.ar      1 <0>         0.0000
      9 C9          2.8783   -1.6520    2.0022 C.ar      1 <0>         0.0000
     10 C10        -1.5533   -1.4314    4.0913 C.2       1 <0>         0.0000
     11 C11        -0.2597    0.1505   -0.2205 C.2       1 <0>         0.0000
     12 C12        -0.6343   -0.2470    4.0080 C.3       1 <0>         0.0000
     13 N1          5.3017   -0.9953   -0.4082 N.pl3     1 <0>         0.0000
     14 N2         -0.3194    0.0914    2.6559 N.pl3     1 <0>         0.0000
     15 O1         -0.9578    1.0989    0.1469 O.2       1 <0>         0.0000
     16 O2          4.8710   -3.3532    0.5407 O.2       1 <0>         0.0000
     17 O3          3.7708   -2.6745   -1.6219 O.2       1 <0>         0.0000
     18 O4         -2.4200   -1.5945    3.0575 O.3       1 <0>         0.0000
     19 O5         -0.4169   -0.4409   -1.4352 O.3       1 <0>         0.0000
     20 S1          4.2498   -2.3351   -0.2914 S.o2      1 <0>         0.0000
     21 Cl1         4.1349   -2.3756    2.9403 Cl        1 <0>         0.0000
     22 H1         -3.1622   -4.1481    4.9894 H         1 <0>         0.0000
     23 H2         -1.1649   -2.5474    5.9432 H         1 <0>         0.0000
     24 H3          1.9175   -1.0191   -1.1997 H         1 <0>         0.0000
     25 H4          1.7615   -1.0924    3.7631 H         1 <0>         0.0000
     26 H5         -3.8898   -2.9764    2.5947 H         1 <0>         0.0000
     27 H6         -1.0920    0.6305    4.4775 H         1 <0>         0.0000
     28 H7          0.3071   -0.4425    4.5322 H         1 <0>         0.0000
     29 H8          6.1638   -1.0106    0.1504 H         1 <0>         0.0000
     30 H9          5.4099   -0.5473   -1.3263 H         1 <0>         0.0000
     31 H10        -0.8743    0.7612    2.1595 H         1 <0>         0.0000
     32 H11        -1.1320   -0.0344   -1.9696 H         1 <0>         0.0000
@<TRIPOS>BOND
     1    1    2 1
     2    1    5 2
     3    2   10 2
     4    3    6 ar
     5    3    8 ar
     6    4    7 ar
     7    4    9 ar
     8    5   18 1
     9    6    7 ar
    10    6   11 1
    11    7   14 1
    12    8    9 ar
    13    8   20 1
    14    9   21 1
    15   10   12 1
    16   10   18 1
    17   11   15 2
    18   11   19 1
    19   12   14 1
    20   13   20 1
    21   16   20 2
    22   17   20 2
    23    1   22 1
    24    2   23 1
    25    3   24 1
    26    4   25 1
    27    5   26 1
    28   12   27 1
    29   12   28 1
    30   13   29 1
    31   13   30 1
    32   14   31 1
    33   19   32 1
@<TRIPOS>MOLECULE
*****
   32    33     0     0     0
SMALL
NO_CHARGES

@<TRIPOS>ATOM
      1 C1         -2.6565   -3.3697    4.0411 C.2       1 <0>         0.0000
      2 C2         -1.4497   -2.7344    3.6629 C.2       1 <0>         0.0000
      3 C3          1.8851   -1.0363   -0.1124 C.ar      1 <0>         0.0000
      4 C4          1.7997   -1.0786    2.6757 C.ar      1 <0>         0.0000
      5 C5         -3.4115   -2.4097    4.6739 C.2       1 <0>         0.0000
      6 C6          0.8066   -0.4630    0.5610 C.ar      1 <0>         0.0000
      7 C7          0.7638   -0.4841    1.9551 C.ar      1 <0>         0.0000
      8 C8          2.9210   -1.6309    0.6081 C.ar      1 <0>         0.0000
      9 C9          2.8783   -1.6520    2.0022 C.ar      1 <0>         0.0000
     10 C10        -1.5533   -1.4314    4.0913 C.2       1 <0>         0.0000
     11 C11        -0.2597    0.1505   -0.2205 C.2       1 <0>         0.0000
     12 C12        -0.6343   -0.2470    4.0080 C.3       1 <0>         0.0000
     13 N1          3.6819   -3.9315   -0.5023 N.pl3     1 <0>         0.0000
     14 N2         -0.3194    0.0914    2.6559 N.pl3     1 <0>         0.0000
     15 O1         -0.6026    1.3336   -0.1536 O.2       1 <0>         0.0000
     16 O2          4.3156   -1.6812   -1.5886 O.2       1 <0>         0.0000
     17 O3          5.4206   -2.3623    0.5707 O.2       1 <0>         0.0000
     18 O4         -2.7462   -1.2253    4.7085 O.3       1 <0>         0.0000
     19 O5         -0.8607   -0.7347   -1.0602 O.3       1 <0>         0.0000
     20 S1          4.2498   -2.3351   -0.2914 S.o2      1 <0>         0.0000
     21 Cl1         4.1349   -2.3756    2.9403 Cl        1 <0>         0.0000
     22 H1         -2.9405   -4.3986    3.8739 H         1 <0>         0.0000
     23 H2         -0.6105   -3.1745    3.1431 H         1 <0>         0.0000
     24 H3          1.9175   -1.0191   -1.1997 H         1 <0>         0.0000
     25 H4          1.7615   -1.0924    3.7631 H         1 <0>         0.0000
     26 H5         -4.3901   -2.4099    5.1311 H         1 <0>         0.0000
     27 H6         -1.0920    0.6305    4.4775 H         1 <0>         0.0000
     28 H7          0.3071   -0.4425    4.5322 H         1 <0>         0.0000
     29 H8          3.3857   -4.2160   -1.4440 H         1 <0>         0.0000
     30 H9          4.1398   -4.6794    0.0326 H         1 <0>         0.0000
     31 H10        -0.8743    0.7612    2.1595 H         1 <0>         0.0000
     32 H11        -1.5797   -0.3311   -1.5917 H         1 <0>         0.0000
@<TRIPOS>BOND
     1    1    2 1
     2    1    5 2
     3    2   10 2
     4    3    6 ar
     5    3    8 ar
     6    4    7 ar
     7    4    9 ar
     8    5   18 1
     9    6    7 ar
    10    6   11 1
    11    7   14 1
    12    8    9 ar
    13    8   20 1
    14    9   21 1
    15   10   12 1
    16   10   18 1
    17   11   15 2
    18   11   19 1
    19   12   14 1
    20   13   20 1
    21   16   20 2
    22   17   20 2
    23    1   22 1
    24    2   23 1
    25    3   24 1
    26    4   25 1
    27    5   26 1
    28   12   27 1
    29   12   28 1
    30   13   29 1
    31   13   30 1
    32   14   31 1
    33   19   32 1
@<TRIPOS>MOLECULE
*****
   32    33     0     0     0
SMALL
NO_CHARGES

@<TRIPOS>ATOM
      1 C1         -2.6565   -3.3697    4.0411 C.2       1 <0>         0.0000
      2 C2         -1.4497   -2.7344    3.6629 C.2       1 <0>         0.0000
      3 C3          1.8851   -1.0363   -0.1124 C.ar      1 <0>         0.0000
      4 C4          1.7997   -1.0786    2.6757 C.ar      1 <0>         0.0000
      5 C5         -3.4115   -2.4097    4.6739 C.2       1 <0>         0.0000
      6 C6          0.8066   -0.4630    0.5610 C.ar      1 <0>         0.0000
      7 C7          0.7638   -0.4841    1.9551 C.ar      1 <0>         0.0000
      8 C8          2.9210   -1.6309    0.6081 C.ar      1 <0>         0.0000
      9 C9          2.8783   -1.6520    2.0022 C.ar      1 <0>         0.0000
     10 C10        -1.5533   -1.4314    4.0913 C.2       1 <0>         0.0000
     11 C11        -0.2597    0.1505   -0.2205 C.2       1 <0>         0.0000
     12 C12        -0.6343   -0.2470    4.0080 C.3       1 <0>         0.0000
     13 N1          5.3017   -0.9953   -0.4082 N.pl3     1 <0>         0.0000
     14 N2         -0.3194    0.0914    2.6559 N.pl3     1 <0>         0.0000
     15 O1         -0.6026    1.3336   -0.1536 O.2       1 <0>         0.0000
     16 O2          4.8710   -3.3532    0.5407 O.2       1 <0>         0.0000
     17 O3          3.7708   -2.6745   -1.6219 O.2       1 <0>         0.0000
     18 O4         -2.7462   -1.2253    4.7085 O.3       1 <0>         0.0000
     19 O5         -0.8607   -0.7347   -1.0602 O.3       1 <0>         0.0000
     20 S1          4.2498   -2.3351   -0.2914 S.o2      1 <0>         0.0000
     21 Cl1         4.1349   -2.3756    2.9403 Cl        1 <0>         0.0000
     22 H1         -2.9405   -4.3986    3.8739 H         1 <0>         0.0000
     23 H2         -0.6105   -3.1745    3.1431 H         1 <0>         0.0000
     24 H3          1.9175   -1.0191   -1.1997 H         1 <0>         0.0000
     25 H4          1.7615   -1.0924    3.7631 H         1 <0>         0.0000
     26 H5         -4.3901   -2.4099    5.1311 H         1 <0>         0.0000
     27 H6         -1.0920    0.6305    4.4775 H         1 <0>         0.0000
     28 H7          0.3071   -0.4425    4.5322 H         1 <0>         0.0000
     29 H8          6.1638   -1.0106    0.1504 H         1 <0>         0.0000
     30 H9          5.4099   -0.5473   -1.3263 H         1 <0>         0.0000
     31 H10        -0.8743    0.7612    2.1595 H         1 <0>         0.0000
     32 H11        -1.5797   -0.3311   -1.5917 H         1 <0>         0.0000
@<TRIPOS>BOND
     1    1    2 1
     2    1    5 2
     3    2   10 2
     4    3    6 ar
     5    3    8 ar
     6    4    7 ar
     7    4    9 ar
     8    5   18 1
     9    6    7 ar
    10    6   11 1
    11    7   14 1
    12    8    9 ar
    13    8   20 1
    14    9   21 1
    15   10   12 1
    16   10   18 1
    17   11   15 2
    18   11   19 1
    19   12   14 1
    20   13   20 1
    21   16   20 2
    22   17   20 2
    23    1   22 1
    24    2   23 1
    25    3   24 1
    26    4   25 1
    27    5   26 1
    28   12   27 1
    29   12   28 1
    30   13   29 1
    31   13   30 1
    32   14   31 1
    33   19   32 1
@<TRIPOS>MOLECULE
*****
   32    33     0     0     0
SMALL
NO_CHARGES

@<TRIPOS>ATOM
      1 C1         -3.1450   -2.9664    4.3857 C.2       1 <0>         0.0000
      2 C2         -2.8084   -1.6125    4.6241 C.2       1 <0>         0.0000
      3 C3          1.8851   -1.0363   -0.1124 C.ar      1 <0>         0.0000
      4 C4          1.7997   -1.0786    2.6757 C.ar      1 <0>         0.0000
      5 C5         -2.0717   -3.5161    3.7240 C.2       1 <0>         0.0000
      6 C6          0.8066   -0.4630    0.5610 C.ar      1 <0>         0.0000
      7 C7          0.7638   -0.4841    1.9551 C.ar      1 <0>         0.0000
      8 C8          2.9210   -1.6309    0.6081 C.ar      1 <0>         0.0000
      9 C9          2.8783   -1.6520    2.0022 C.ar      1 <0>         0.0000
     10 C10        -1.5533   -1.4314    4.0913 C.2       1 <0>         0.0000
     11 C11        -0.2597    0.1505   -0.2205 C.2       1 <0>         0.0000
     12 C12        -0.6343   -0.2470    4.0080 C.3       1 <0>         0.0000
     13 N1          3.6819   -3.9315   -0.5023 N.pl3     1 <0>         0.0000
     14 N2         -0.3194    0.0914    2.6559 N.pl3     1 <0>         0.0000
     15 O1         -0.6026    1.3336   -0.1536 O.2       1 <0>         0.0000
     16 O2          4.3156   -1.6812   -1.5886 O.2       1 <0>         0.0000
     17 O3          5.4206   -2.3623    0.5707 O.2       1 <0>         0.0000
     18 O4         -1.0971   -2.5870    3.5408 O.3       1 <0>         0.0000
     19 O5         -0.8607   -0.7347   -1.0602 O.3       1 <0>         0.0000
     20 S1          4.2498   -2.3351   -0.2914 S.o2      1 <0>         0.0000
     21 Cl1         4.1349   -2.3756    2.9403 Cl        1 <0>         0.0000
     22 H1         -4.0561   -3.4776    4.6612 H         1 <0>         0.0000
     23 H2         -3.4085   -0.8643    5.1221 H         1 <0>         0.0000
     24 H3          1.9175   -1.0191   -1.1997 H         1 <0>         0.0000
     25 H4          1.7615   -1.0924    3.7631 H         1 <0>         0.0000
     26 H5         -1.8576   -4.5011    3.3362 H         1 <0>         0.0000
     27 H6         -1.0920    0.6305    4.4775 H         1 <0>         0.0000
     28 H7          0.3071   -0.4425    4.5322 H         1 <0>         0.0000
     29 H8          3.3857   -4.2160   -1.4440 H         1 <0>         0.0000
     30 H9          4.1398   -4.6794    0.0326 H         1 <0>         0.0000
     31 H10        -0.8743    0.7612    2.1595 H         1 <0>         0.0000
     32 H11        -1.5797   -0.3311   -1.5917 H         1 <0>         0.0000
@<TRIPOS>BOND
     1    1    2 1
     2    1    5 2
     3    2   10 2
     4    3    6 ar
     5    3    8 ar
     6    4    7 ar
     7    4    9 ar
     8    5   18 1
     9    6    7 ar
    10    6   11 1
    11    7   14 1
    12    8    9 ar
    13    8   20 1
    14    9   21 1
    15   10   12 1
    16   10   18 1
    17   11   15 2
    18   11   19 1
    19   12   14 1
    20   13   20 1
    21   16   20 2
    22   17   20 2
    23    1   22 1
    24    2   23 1
    25    3   24 1
    26    4   25 1
    27    5   26 1
    28   12   27 1
    29   12   28 1
    30   13   29 1
    31   13   30 1
    32   14   31 1
    33   19   32 1
@<TRIPOS>MOLECULE
*****
   32    33     0     0     0
SMALL
NO_CHARGES

@<TRIPOS>ATOM
      1 C1         -3.1450   -2.9664    4.3857 C.2       1 <0>         0.0000
      2 C2         -2.8084   -1.6125    4.6241 C.2       1 <0>         0.0000
      3 C3          1.8851   -1.0363   -0.1124 C.ar      1 <0>         0.0000
      4 C4          1.7997   -1.0786    2.6757 C.ar      1 <0>         0.0000
      5 C5         -2.0717   -3.5161    3.7240 C.2       1 <0>         0.0000
      6 C6          0.8066   -0.4630    0.5610 C.ar      1 <0>         0.0000
      7 C7          0.7638   -0.4841    1.9551 C.ar      1 <0>         0.0000
      8 C8          2.9210   -1.6309    0.6081 C.ar      1 <0>         0.0000
      9 C9          2.8783   -1.6520    2.0022 C.ar      1 <0>         0.0000
     10 C10        -1.5533   -1.4314    4.0913 C.2       1 <0>         0.0000
     11 C11        -0.2597    0.1505   -0.2205 C.2       1 <0>         0.0000
     12 C12        -0.6343   -0.2470    4.0080 C.3       1 <0>         0.0000
     13 N1          5.3017   -0.9953   -0.4082 N.pl3     1 <0>         0.0000
     14 N2         -0.3194    0.0914    2.6559 N.pl3     1 <0>         0.0000
     15 O1         -0.6026    1.3336   -0.1536 O.2       1 <0>         0.0000
     16 O2          4.8710   -3.3532    0.5407 O.2       1 <0>         0.0000
     17 O3          3.7708   -2.6745   -1.6219 O.2       1 <0>         0.0000
     18 O4         -1.0971   -2.5870    3.5408 O.3       1 <0>         0.0000
     19 O5         -0.8607   -0.7347   -1.0602 O.3       1 <0>         0.0000
     20 S1          4.2498   -2.3351   -0.2914 S.o2      1 <0>         0.0000
     21 Cl1         4.1349   -2.3756    2.9403 Cl        1 <0>         0.0000
     22 H1         -4.0561   -3.4776    4.6612 H         1 <0>         0.0000
     23 H2         -3.4085   -0.8643    5.1221 H         1 <0>         0.0000
     24 H3          1.9175   -1.0191   -1.1997 H         1 <0>         0.0000
     25 H4          1.7615   -1.0924    3.7631 H         1 <0>         0.0000
     26 H5         -1.8576   -4.5011    3.3362 H         1 <0>         0.0000
     27 H6         -1.0920    0.6305    4.4775 H         1 <0>         0.0000
     28 H7          0.3071   -0.4425    4.5322 H         1 <0>         0.0000
     29 H8          6.1638   -1.0106    0.1504 H         1 <0>         0.0000
     30 H9          5.4099   -0.5473   -1.3263 H         1 <0>         0.0000
     31 H10        -0.8743    0.7612    2.1595 H         1 <0>         0.0000
     32 H11        -1.5797   -0.3311   -1.5917 H         1 <0>         0.0000
@<TRIPOS>BOND
     1    1    2 1
     2    1    5 2
     3    2   10 2
     4    3    6 ar
     5    3    8 ar
     6    4    7 ar
     7    4    9 ar
     8    5   18 1
     9    6    7 ar
    10    6   11 1
    11    7   14 1
    12    8    9 ar
    13    8   20 1
    14    9   21 1
    15   10   12 1
    16   10   18 1
    17   11   15 2
    18   11   19 1
    19   12   14 1
    20   13   20 1
    21   16   20 2
    22   17   20 2
    23    1   22 1
    24    2   23 1
    25    3   24 1
    26    4   25 1
    27    5   26 1
    28   12   27 1
    29   12   28 1
    30   13   29 1
    31   13   30 1
    32   14   31 1
    33   19   32 1
@<TRIPOS>MOLECULE
*****
   32    33     0     0     0
SMALL
NO_CHARGES

@<TRIPOS>ATOM
      1 C1          1.1483    3.8480    4.7539 C.2       1 <0>         0.0000
      2 C2          0.2549    2.8187    5.1356 C.2       1 <0>         0.0000
      3 C3          1.8851   -1.0363   -0.1124 C.ar      1 <0>         0.0000
      4 C4          1.7997   -1.0786    2.6757 C.ar      1 <0>         0.0000
      5 C5          1.7805    3.4026    3.6164 C.2       1 <0>         0.0000
      6 C6          0.8066   -0.4630    0.5610 C.ar      1 <0>         0.0000
      7 C7          0.7638   -0.4841    1.9551 C.ar      1 <0>         0.0000
      8 C8          2.9210   -1.6309    0.6081 C.ar      1 <0>         0.0000
      9 C9          2.8783   -1.6520    2.0022 C.ar      1 <0>         0.0000
     10 C10         0.4047    1.8179    4.2040 C.2       1 <0>         0.0000
     11 C11        -0.2597    0.1505   -0.2205 C.2       1 <0>         0.0000
     12 C12        -0.2376    0.4719    4.0308 C.3       1 <0>         0.0000
     13 N1          3.6819   -3.9315   -0.5023 N.pl3     1 <0>         0.0000
     14 N2         -0.3194    0.0914    2.6559 N.pl3     1 <0>         0.0000
     15 O1         -1.4445   -0.1926   -0.2028 O.2       1 <0>         0.0000
     16 O2          4.3156   -1.6812   -1.5886 O.2       1 <0>         0.0000
     17 O3          5.4206   -2.3623    0.5707 O.2       1 <0>         0.0000
     18 O4          1.3328    2.1660    3.2745 O.3       1 <0>         0.0000
     19 O5          0.1902    1.1727   -0.9968 O.3       1 <0>         0.0000
     20 S1          4.2498   -2.3351   -0.2914 S.o2      1 <0>         0.0000
     21 Cl1         4.1349   -2.3756    2.9403 Cl        1 <0>         0.0000
     22 H1          1.3115    4.7956    5.2464 H         1 <0>         0.0000
     23 H2         -0.4133    2.8105    5.9849 H         1 <0>         0.0000
     24 H3          1.9175   -1.0191   -1.1997 H         1 <0>         0.0000
     25 H4          1.7615   -1.0924    3.7631 H         1 <0>         0.0000
     26 H5          2.5329    3.8238    2.9659 H         1 <0>         0.0000
     27 H6          0.3325   -0.2990    4.5608 H         1 <0>         0.0000
     28 H7         -1.2529    0.4652    4.4410 H         1 <0>         0.0000
     29 H8          3.3857   -4.2160   -1.4440 H         1 <0>         0.0000
     30 H9          4.1398   -4.6794    0.0326 H         1 <0>         0.0000
     31 H10        -1.1691    0.2259    2.1433 H         1 <0>         0.0000
     32 H11        -0.5205    1.5931   -1.5264 H         1 <0>         0.0000
@<TRIPOS>BOND
     1    1    2 1
     2    1    5 2
     3    2   10 2
     4    3    6 ar
     5    3    8 ar
     6    4    7 ar
     7    4    9 ar
     8    5   18 1
     9    6    7 ar
    10    6   11 1
    11    7   14 1
    12    8    9 ar
    13    8   20 1
    14    9   21 1
    15   10   12 1
    16   10   18 1
    17   11   15 2
    18   11   19 1
    19   12   14 1
    20   13   20 1
    21   16   20 2
    22   17   20 2
    23    1   22 1
    24    2   23 1
    25    3   24 1
    26    4   25 1
    27    5   26 1
    28   12   27 1
    29   12   28 1
    30   13   29 1
    31   13   30 1
    32   14   31 1
    33   19   32 1
@<TRIPOS>MOLECULE
*****
   32    33     0     0     0
SMALL
NO_CHARGES

@<TRIPOS>ATOM
      1 C1         -2.4688   -1.7279    6.0368 C.2       1 <0>         0.0000
      2 C2         -1.3766   -1.6352    5.1414 C.2       1 <0>         0.0000
      3 C3          1.8851   -1.0363   -0.1124 C.ar      1 <0>         0.0000
      4 C4          1.7997   -1.0786    2.6757 C.ar      1 <0>         0.0000
      5 C5         -2.8874   -0.4374    6.2635 C.2       1 <0>         0.0000
      6 C6          0.8066   -0.4630    0.5610 C.ar      1 <0>         0.0000
      7 C7          0.7638   -0.4841    1.9551 C.ar      1 <0>         0.0000
      8 C8          2.9210   -1.6309    0.6081 C.ar      1 <0>         0.0000
      9 C9          2.8783   -1.6520    2.0022 C.ar      1 <0>         0.0000
     10 C10        -1.2059   -0.2947    4.8845 C.2       1 <0>         0.0000
     11 C11        -0.2597    0.1505   -0.2205 C.2       1 <0>         0.0000
     12 C12        -0.2376    0.4719    4.0308 C.3       1 <0>         0.0000
     13 N1          3.7571   -2.0119   -1.8940 N.pl3     1 <0>         0.0000
     14 N2         -0.3194    0.0914    2.6559 N.pl3     1 <0>         0.0000
     15 O1         -0.9578    1.0989    0.1469 O.2       1 <0>         0.0000
     16 O2          5.4503   -1.5673   -0.0016 O.2       1 <0>         0.0000
     17 O3          4.2353   -3.7732   -0.0757 O.2       1 <0>         0.0000
     18 O4         -2.1229    0.4422    5.5647 O.3       1 <0>         0.0000
     19 O5         -0.4169   -0.4409   -1.4352 O.3       1 <0>         0.0000
     20 S1          4.2498   -2.3351   -0.2914 S.o2      1 <0>         0.0000
     21 Cl1         4.1349   -2.3756    2.9403 Cl        1 <0>         0.0000
     22 H1         -2.8970   -2.6231    6.4639 H         1 <0>         0.0000
     23 H2         -0.7889   -2.4465    4.7360 H         1 <0>         0.0000
     24 H3          1.9175   -1.0191   -1.1997 H         1 <0>         0.0000
     25 H4          1.7615   -1.0924    3.7631 H         1 <0>         0.0000
     26 H5         -3.6726   -0.0009    6.8632 H         1 <0>         0.0000
     27 H6         -0.4339    1.5477    4.0953 H         1 <0>         0.0000
     28 H7          0.7932    0.3089    4.3625 H         1 <0>         0.0000
     29 H8          4.2724   -1.2958   -2.4203 H         1 <0>         0.0000
     30 H9          3.4412   -2.8026   -2.4687 H         1 <0>         0.0000
     31 H10        -1.1691    0.2259    2.1433 H         1 <0>         0.0000
     32 H11        -1.1320   -0.0344   -1.9696 H         1 <0>         0.0000
@<TRIPOS>BOND
     1    1    2 1
     2    1    5 2
     3    2   10 2
     4    3    6 ar
     5    3    8 ar
     6    4    7 ar
     7    4    9 ar
     8    5   18 1
     9    6    7 ar
    10    6   11 1
    11    7   14 1
    12    8    9 ar
    13    8   20 1
    14    9   21 1
    15   10   12 1
    16   10   18 1
    17   11   15 2
    18   11   19 1
    19   12   14 1
    20   13   20 1
    21   16   20 2
    22   17   20 2
    23    1   22 1
    24    2   23 1
    25    3   24 1
    26    4   25 1
    27    5   26 1
    28   12   27 1
    29   12   28 1
    30   13   29 1
    31   13   30 1
    32   14   31 1
    33   19   32 1
@<TRIPOS>MOLECULE
*****
   32    33     0     0     0
SMALL
NO_CHARGES

@<TRIPOS>ATOM
      1 C1         -2.7825   -1.1099    6.2359 C.2       1 <0>         0.0000
      2 C2         -2.2484    0.0851    5.6975 C.2       1 <0>         0.0000
      3 C3          1.8851   -1.0363   -0.1124 C.ar      1 <0>         0.0000
      4 C4          1.7997   -1.0786    2.6757 C.ar      1 <0>         0.0000
      5 C5         -2.0284   -2.1348    5.7135 C.2       1 <0>         0.0000
      6 C6          0.8066   -0.4630    0.5610 C.ar      1 <0>         0.0000
      7 C7          0.7638   -0.4841    1.9551 C.ar      1 <0>         0.0000
      8 C8          2.9210   -1.6309    0.6081 C.ar      1 <0>         0.0000
      9 C9          2.8783   -1.6520    2.0022 C.ar      1 <0>         0.0000
     10 C10        -1.2059   -0.2947    4.8845 C.2       1 <0>         0.0000
     11 C11        -0.2597    0.1505   -0.2205 C.2       1 <0>         0.0000
     12 C12        -0.2376    0.4719    4.0308 C.3       1 <0>         0.0000
     13 N1          3.7571   -2.0119   -1.8940 N.pl3     1 <0>         0.0000
     14 N2         -0.3194    0.0914    2.6559 N.pl3     1 <0>         0.0000
     15 O1         -0.9578    1.0989    0.1469 O.2       1 <0>         0.0000
     16 O2          5.4503   -1.5673   -0.0016 O.2       1 <0>         0.0000
     17 O3          4.2353   -3.7732   -0.0757 O.2       1 <0>         0.0000
     18 O4         -1.0652   -1.6463    4.8889 O.3       1 <0>         0.0000
     19 O5         -0.4169   -0.4409   -1.4352 O.3       1 <0>         0.0000
     20 S1          4.2498   -2.3351   -0.2914 S.o2      1 <0>         0.0000
     21 Cl1         4.1349   -2.3756    2.9403 Cl        1 <0>         0.0000
     22 H1         -3.6134   -1.2116    6.9190 H         1 <0>         0.0000
     23 H2         -2.5842    1.0958    5.8808 H         1 <0>         0.0000
     24 H3          1.9175   -1.0191   -1.1997 H         1 <0>         0.0000
     25 H4          1.7615   -1.0924    3.7631 H         1 <0>         0.0000
     26 H5         -2.0487   -3.2090    5.8240 H         1 <0>         0.0000
     27 H6         -0.4339    1.5477    4.0953 H         1 <0>         0.0000
     28 H7          0.7932    0.3089    4.3625 H         1 <0>         0.0000
     29 H8          4.2724   -1.2958   -2.4203 H         1 <0>         0.0000
     30 H9          3.4412   -2.8026   -2.4687 H         1 <0>         0.0000
     31 H10        -1.1691    0.2259    2.1433 H         1 <0>         0.0000
     32 H11        -1.1320   -0.0344   -1.9696 H         1 <0>         0.0000
@<TRIPOS>BOND
     1    1    2 1
     2    1    5 2
     3    2   10 2
     4    3    6 ar
     5    3    8 ar
     6    4    7 ar
     7    4    9 ar
     8    5   18 1
     9    6    7 ar
    10    6   11 1
    11    7   14 1
    12    8    9 ar
    13    8   20 1
    14    9   21 1
    15   10   12 1
    16   10   18 1
    17   11   15 2
    18   11   19 1
    19   12   14 1
    20   13   20 1
    21   16   20 2
    22   17   20 2
    23    1   22 1
    24    2   23 1
    25    3   24 1
    26    4   25 1
    27    5   26 1
    28   12   27 1
    29   12   28 1
    30   13   29 1
    31   13   30 1
    32   14   31 1
    33   19   32 1
@<TRIPOS>MOLECULE
*****
   32    33     0     0     0
SMALL
NO_CHARGES

@<TRIPOS>ATOM
      1 C1         -2.7537   -3.2599    4.5295 C.2       1 <0>         0.0000
      2 C2         -1.7188   -2.4299    5.0227 C.2       1 <0>         0.0000
      3 C3          1.8851   -1.0363   -0.1124 C.ar      1 <0>         0.0000
      4 C4          1.7997   -1.0786    2.6757 C.ar      1 <0>         0.0000
      5 C5         -3.1469   -2.7093    3.3319 C.2       1 <0>         0.0000
      6 C6          0.8066   -0.4630    0.5610 C.ar      1 <0>         0.0000
      7 C7          0.7638   -0.4841    1.9551 C.ar      1 <0>         0.0000
      8 C8          2.9210   -1.6309    0.6081 C.ar      1 <0>         0.0000
      9 C9          2.8783   -1.6520    2.0022 C.ar      1 <0>         0.0000
     10 C10        -1.5533   -1.4314    4.0913 C.2       1 <0>         0.0000
     11 C11        -0.2597    0.1505   -0.2205 C.2       1 <0>         0.0000
     12 C12        -0.6343   -0.2470    4.0080 C.3       1 <0>         0.0000
     13 N1          3.7571   -2.0119   -1.8940 N.pl3     1 <0>         0.0000
     14 N2         -0.3194    0.0914    2.6559 N.pl3     1 <0>         0.0000
     15 O1         -0.9578    1.0989    0.1469 O.2       1 <0>         0.0000
     16 O2          5.4503   -1.5673   -0.0016 O.2       1 <0>         0.0000
     17 O3          4.2353   -3.7732   -0.0757 O.2       1 <0>         0.0000
     18 O4         -2.4200   -1.5945    3.0575 O.3       1 <0>         0.0000
     19 O5         -0.4169   -0.4409   -1.4352 O.3       1 <0>         0.0000
     20 S1          4.2498   -2.3351   -0.2914 S.o2      1 <0>         0.0000
     21 Cl1         4.1349   -2.3756    2.9403 Cl        1 <0>         0.0000
     22 H1         -3.1622   -4.1481    4.9894 H         1 <0>         0.0000
     23 H2         -1.1649   -2.5474    5.9432 H         1 <0>         0.0000
     24 H3          1.9175   -1.0191   -1.1997 H         1 <0>         0.0000
     25 H4          1.7615   -1.0924    3.7631 H         1 <0>         0.0000
     26 H5         -3.8898   -2.9764    2.5947 H         1 <0>         0.0000
     27 H6         -1.0920    0.6305    4.4775 H         1 <0>         0.0000
     28 H7          0.3071   -0.4425    4.5322 H         1 <0>         0.0000
     29 H8          4.2724   -1.2958   -2.4203 H         1 <0>         0.0000
     30 H9          3.4412   -2.8026   -2.4687 H         1 <0>         0.0000
     31 H10        -0.8743    0.7612    2.1595 H         1 <0>         0.0000
     32 H11        -1.1320   -0.0344   -1.9696 H         1 <0>         0.0000
@<TRIPOS>BOND
     1    1    2 1
     2    1    5 2
     3    2   10 2
     4    3    6 ar
     5    3    8 ar
     6    4    7 ar
     7    4    9 ar
     8    5   18 1
     9    6    7 ar
    10    6   11 1
    11    7   14 1
    12    8    9 ar
    13    8   20 1
    14    9   21 1
    15   10   12 1
    16   10   18 1
    17   11   15 2
    18   11   19 1
    19   12   14 1
    20   13   20 1
    21   16   20 2
    22   17   20 2
    23    1   22 1
    24    2   23 1
    25    3   24 1
    26    4   25 1
    27    5   26 1
    28   12   27 1
    29   12   28 1
    30   13   29 1
    31   13   30 1
    32   14   31 1
    33   19   32 1
@<TRIPOS>MOLECULE
*****
   32    33     0     0     0
SMALL
NO_CHARGES

@<TRIPOS>ATOM
      1 C1          1.1483    3.8480    4.7539 C.2       1 <0>         0.0000
      2 C2          0.2549    2.8187    5.1356 C.2       1 <0>         0.0000
      3 C3          1.8851   -1.0363   -0.1124 C.ar      1 <0>         0.0000
      4 C4          1.7997   -1.0786    2.6757 C.ar      1 <0>         0.0000
      5 C5          1.7805    3.4026    3.6164 C.2       1 <0>         0.0000
      6 C6          0.8066   -0.4630    0.5610 C.ar      1 <0>         0.0000
      7 C7          0.7638   -0.4841    1.9551 C.ar      1 <0>         0.0000
      8 C8          2.9210   -1.6309    0.6081 C.ar      1 <0>         0.0000
      9 C9          2.8783   -1.6520    2.0022 C.ar      1 <0>         0.0000
     10 C10         0.4047    1.8179    4.2040 C.2       1 <0>         0.0000
     11 C11        -0.2597    0.1505   -0.2205 C.2       1 <0>         0.0000
     12 C12        -0.2376    0.4719    4.0308 C.3       1 <0>         0.0000
     13 N1          5.3017   -0.9953   -0.4082 N.pl3     1 <0>         0.0000
     14 N2         -0.3194    0.0914    2.6559 N.pl3     1 <0>         0.0000
     15 O1         -1.4445   -0.1926   -0.2028 O.2       1 <0>         0.0000
     16 O2          4.8710   -3.3532    0.5407 O.2       1 <0>         0.0000
     17 O3          3.7708   -2.6745   -1.6219 O.2       1 <0>         0.0000
     18 O4          1.3328    2.1660    3.2745 O.3       1 <0>         0.0000
     19 O5          0.1902    1.1727   -0.9968 O.3       1 <0>         0.0000
     20 S1          4.2498   -2.3351   -0.2914 S.o2      1 <0>         0.0000
     21 Cl1         4.1349   -2.3756    2.9403 Cl        1 <0>         0.0000
     22 H1          1.3115    4.7956    5.2464 H         1 <0>         0.0000
     23 H2         -0.4133    2.8105    5.9849 H         1 <0>         0.0000
     24 H3          1.9175   -1.0191   -1.1997 H         1 <0>         0.0000
     25 H4          1.7615   -1.0924    3.7631 H         1 <0>         0.0000
     26 H5          2.5329    3.8238    2.9659 H         1 <0>         0.0000
     27 H6          0.3325   -0.2990    4.5608 H         1 <0>         0.0000
     28 H7         -1.2529    0.4652    4.4410 H         1 <0>         0.0000
     29 H8          6.1638   -1.0106    0.1504 H         1 <0>         0.0000
     30 H9          5.4099   -0.5473   -1.3263 H         1 <0>         0.0000
     31 H10        -1.1691    0.2259    2.1433 H         1 <0>         0.0000
     32 H11        -0.5205    1.5931   -1.5264 H         1 <0>         0.0000
@<TRIPOS>BOND
     1    1    2 1
     2    1    5 2
     3    2   10 2
     4    3    6 ar
     5    3    8 ar
     6    4    7 ar
     7    4    9 ar
     8    5   18 1
     9    6    7 ar
    10    6   11 1
    11    7   14 1
    12    8    9 ar
    13    8   20 1
    14    9   21 1
    15   10   12 1
    16   10   18 1
    17   11   15 2
    18   11   19 1
    19   12   14 1
    20   13   20 1
    21   16   20 2
    22   17   20 2
    23    1   22 1
    24    2   23 1
    25    3   24 1
    26    4   25 1
    27    5   26 1
    28   12   27 1
    29   12   28 1
    30   13   29 1
    31   13   30 1
    32   14   31 1
    33   19   32 1
@<TRIPOS>MOLECULE
*****
   32    33     0     0     0
SMALL
NO_CHARGES

@<TRIPOS>ATOM
      1 C1         -2.6565   -3.3697    4.0411 C.2       1 <0>         0.0000
      2 C2         -1.4497   -2.7344    3.6629 C.2       1 <0>         0.0000
      3 C3          1.8851   -1.0363   -0.1124 C.ar      1 <0>         0.0000
      4 C4          1.7997   -1.0786    2.6757 C.ar      1 <0>         0.0000
      5 C5         -3.4115   -2.4097    4.6739 C.2       1 <0>         0.0000
      6 C6          0.8066   -0.4630    0.5610 C.ar      1 <0>         0.0000
      7 C7          0.7638   -0.4841    1.9551 C.ar      1 <0>         0.0000
      8 C8          2.9210   -1.6309    0.6081 C.ar      1 <0>         0.0000
      9 C9          2.8783   -1.6520    2.0022 C.ar      1 <0>         0.0000
     10 C10        -1.5533   -1.4314    4.0913 C.2       1 <0>         0.0000
     11 C11        -0.2597    0.1505   -0.2205 C.2       1 <0>         0.0000
     12 C12        -0.6343   -0.2470    4.0080 C.3       1 <0>         0.0000
     13 N1          3.7571   -2.0119   -1.8940 N.pl3     1 <0>         0.0000
     14 N2         -0.3194    0.0914    2.6559 N.pl3     1 <0>         0.0000
     15 O1         -0.6026    1.3336   -0.1536 O.2       1 <0>         0.0000
     16 O2          5.4503   -1.5673   -0.0016 O.2       1 <0>         0.0000
     17 O3          4.2353   -3.7732   -0.0757 O.2       1 <0>         0.0000
     18 O4         -2.7462   -1.2253    4.7085 O.3       1 <0>         0.0000
     19 O5         -0.8607   -0.7347   -1.0602 O.3       1 <0>         0.0000
     20 S1          4.2498   -2.3351   -0.2914 S.o2      1 <0>         0.0000
     21 Cl1         4.1349   -2.3756    2.9403 Cl        1 <0>         0.0000
     22 H1         -2.9405   -4.3986    3.8739 H         1 <0>         0.0000
     23 H2         -0.6105   -3.1745    3.1431 H         1 <0>         0.0000
     24 H3          1.9175   -1.0191   -1.1997 H         1 <0>         0.0000
     25 H4          1.7615   -1.0924    3.7631 H         1 <0>         0.0000
     26 H5         -4.3901   -2.4099    5.1311 H         1 <0>         0.0000
     27 H6         -1.0920    0.6305    4.4775 H         1 <0>         0.0000
     28 H7          0.3071   -0.4425    4.5322 H         1 <0>         0.0000
     29 H8          4.2724   -1.2958   -2.4203 H         1 <0>         0.0000
     30 H9          3.4412   -2.8026   -2.4687 H         1 <0>         0.0000
     31 H10        -0.8743    0.7612    2.1595 H         1 <0>         0.0000
     32 H11        -1.5797   -0.3311   -1.5917 H         1 <0>         0.0000
@<TRIPOS>BOND
     1    1    2 1
     2    1    5 2
     3    2   10 2
     4    3    6 ar
     5    3    8 ar
     6    4    7 ar
     7    4    9 ar
     8    5   18 1
     9    6    7 ar
    10    6   11 1
    11    7   14 1
    12    8    9 ar
    13    8   20 1
    14    9   21 1
    15   10   12 1
    16   10   18 1
    17   11   15 2
    18   11   19 1
    19   12   14 1
    20   13   20 1
    21   16   20 2
    22   17   20 2
    23    1   22 1
    24    2   23 1
    25    3   24 1
    26    4   25 1
    27    5   26 1
    28   12   27 1
    29   12   28 1
    30   13   29 1
    31   13   30 1
    32   14   31 1
    33   19   32 1
@<TRIPOS>MOLECULE
*****
   32    33     0     0     0
SMALL
NO_CHARGES

@<TRIPOS>ATOM
      1 C1         -3.1450   -2.9664    4.3857 C.2       1 <0>         0.0000
      2 C2         -2.8084   -1.6125    4.6241 C.2       1 <0>         0.0000
      3 C3          1.8851   -1.0363   -0.1124 C.ar      1 <0>         0.0000
      4 C4          1.7997   -1.0786    2.6757 C.ar      1 <0>         0.0000
      5 C5         -2.0717   -3.5161    3.7240 C.2       1 <0>         0.0000
      6 C6          0.8066   -0.4630    0.5610 C.ar      1 <0>         0.0000
      7 C7          0.7638   -0.4841    1.9551 C.ar      1 <0>         0.0000
      8 C8          2.9210   -1.6309    0.6081 C.ar      1 <0>         0.0000
      9 C9          2.8783   -1.6520    2.0022 C.ar      1 <0>         0.0000
     10 C10        -1.5533   -1.4314    4.0913 C.2       1 <0>         0.0000
     11 C11        -0.2597    0.1505   -0.2205 C.2       1 <0>         0.0000
     12 C12        -0.6343   -0.2470    4.0080 C.3       1 <0>         0.0000
     13 N1          3.7571   -2.0119   -1.8940 N.pl3     1 <0>         0.0000
     14 N2         -0.3194    0.0914    2.6559 N.pl3     1 <0>         0.0000
     15 O1         -0.6026    1.3336   -0.1536 O.2       1 <0>         0.0000
     16 O2          5.4503   -1.5673   -0.0016 O.2       1 <0>         0.0000
     17 O3          4.2353   -3.7732   -0.0757 O.2       1 <0>         0.0000
     18 O4         -1.0971   -2.5870    3.5408 O.3       1 <0>         0.0000
     19 O5         -0.8607   -0.7347   -1.0602 O.3       1 <0>         0.0000
     20 S1          4.2498   -2.3351   -0.2914 S.o2      1 <0>         0.0000
     21 Cl1         4.1349   -2.3756    2.9403 Cl        1 <0>         0.0000
     22 H1         -4.0561   -3.4776    4.6612 H         1 <0>         0.0000
     23 H2         -3.4085   -0.8643    5.1221 H         1 <0>         0.0000
     24 H3          1.9175   -1.0191   -1.1997 H         1 <0>         0.0000
     25 H4          1.7615   -1.0924    3.7631 H         1 <0>         0.0000
     26 H5         -1.8576   -4.5011    3.3362 H         1 <0>         0.0000
     27 H6         -1.0920    0.6305    4.4775 H         1 <0>         0.0000
     28 H7          0.3071   -0.4425    4.5322 H         1 <0>         0.0000
     29 H8          4.2724   -1.2958   -2.4203 H         1 <0>         0.0000
     30 H9          3.4412   -2.8026   -2.4687 H         1 <0>         0.0000
     31 H10        -0.8743    0.7612    2.1595 H         1 <0>         0.0000
     32 H11        -1.5797   -0.3311   -1.5917 H         1 <0>         0.0000
@<TRIPOS>BOND
     1    1    2 1
     2    1    5 2
     3    2   10 2
     4    3    6 ar
     5    3    8 ar
     6    4    7 ar
     7    4    9 ar
     8    5   18 1
     9    6    7 ar
    10    6   11 1
    11    7   14 1
    12    8    9 ar
    13    8   20 1
    14    9   21 1
    15   10   12 1
    16   10   18 1
    17   11   15 2
    18   11   19 1
    19   12   14 1
    20   13   20 1
    21   16   20 2
    22   17   20 2
    23    1   22 1
    24    2   23 1
    25    3   24 1
    26    4   25 1
    27    5   26 1
    28   12   27 1
    29   12   28 1
    30   13   29 1
    31   13   30 1
    32   14   31 1
    33   19   32 1
@<TRIPOS>MOLECULE
*****
   32    33     0     0     0
SMALL
NO_CHARGES

@<TRIPOS>ATOM
      1 C1         -2.8522   -1.4439    5.8570 C.2       1 <0>         0.0000
      2 C2         -2.4436   -0.8436    4.6421 C.2       1 <0>         0.0000
      3 C3          1.8851   -1.0363   -0.1124 C.ar      1 <0>         0.0000
      4 C4          1.7997   -1.0786    2.6757 C.ar      1 <0>         0.0000
      5 C5         -1.8349   -1.2192    6.7551 C.2       1 <0>         0.0000
      6 C6          0.8066   -0.4630    0.5610 C.ar      1 <0>         0.0000
      7 C7          0.7638   -0.4841    1.9551 C.ar      1 <0>         0.0000
      8 C8          2.9210   -1.6309    0.6081 C.ar      1 <0>         0.0000
      9 C9          2.8783   -1.6520    2.0022 C.ar      1 <0>         0.0000
     10 C10        -1.2059   -0.2947    4.8845 C.2       1 <0>         0.0000
     11 C11        -0.2597    0.1505   -0.2205 C.2       1 <0>         0.0000
     12 C12        -0.2376    0.4719    4.0308 C.3       1 <0>         0.0000
     13 N1          3.6819   -3.9315   -0.5023 N.pl3     1 <0>         0.0000
     14 N2         -0.3194    0.0914    2.6559 N.pl3     1 <0>         0.0000
     15 O1         -1.4439    0.2177    0.1184 O.2       1 <0>         0.0000
     16 O2          4.3156   -1.6812   -1.5886 O.2       1 <0>         0.0000
     17 O3          5.4206   -2.3623    0.5707 O.2       1 <0>         0.0000
     18 O4         -0.8277   -0.5193    6.1703 O.3       1 <0>         0.0000
     19 O5          0.1899    0.6603   -1.3986 O.3       1 <0>         0.0000
     20 S1          4.2498   -2.3351   -0.2914 S.o2      1 <0>         0.0000
     21 Cl1         4.1349   -2.3756    2.9403 Cl        1 <0>         0.0000
     22 H1         -3.7727   -1.9743    6.0534 H         1 <0>         0.0000
     23 H2         -2.9860   -0.8166    3.7078 H         1 <0>         0.0000
     24 H3          1.9175   -1.0191   -1.1997 H         1 <0>         0.0000
     25 H4          1.7615   -1.0924    3.7631 H         1 <0>         0.0000
     26 H5         -1.6832   -1.4784    7.7927 H         1 <0>         0.0000
     27 H6         -0.4339    1.5477    4.0953 H         1 <0>         0.0000
     28 H7          0.7932    0.3089    4.3625 H         1 <0>         0.0000
     29 H8          3.3857   -4.2160   -1.4440 H         1 <0>         0.0000
     30 H9          4.1398   -4.6794    0.0326 H         1 <0>         0.0000
     31 H10        -1.1691    0.2259    2.1433 H         1 <0>         0.0000
     32 H11        -0.5205    1.0766   -1.9319 H         1 <0>         0.0000
@<TRIPOS>BOND
     1    1    2 1
     2    1    5 2
     3    2   10 2
     4    3    6 ar
     5    3    8 ar
     6    4    7 ar
     7    4    9 ar
     8    5   18 1
     9    6    7 ar
    10    6   11 1
    11    7   14 1
    12    8    9 ar
    13    8   20 1
    14    9   21 1
    15   10   12 1
    16   10   18 1
    17   11   15 2
    18   11   19 1
    19   12   14 1
    20   13   20 1
    21   16   20 2
    22   17   20 2
    23    1   22 1
    24    2   23 1
    25    3   24 1
    26    4   25 1
    27    5   26 1
    28   12   27 1
    29   12   28 1
    30   13   29 1
    31   13   30 1
    32   14   31 1
    33   19   32 1
@<TRIPOS>MOLECULE
*****
   32    33     0     0     0
SMALL
NO_CHARGES

@<TRIPOS>ATOM
      1 C1         -2.8522   -1.4439    5.8570 C.2       1 <0>         0.0000
      2 C2         -2.4436   -0.8436    4.6421 C.2       1 <0>         0.0000
      3 C3          1.8851   -1.0363   -0.1124 C.ar      1 <0>         0.0000
      4 C4          1.7997   -1.0786    2.6757 C.ar      1 <0>         0.0000
      5 C5         -1.8349   -1.2192    6.7551 C.2       1 <0>         0.0000
      6 C6          0.8066   -0.4630    0.5610 C.ar      1 <0>         0.0000
      7 C7          0.7638   -0.4841    1.9551 C.ar      1 <0>         0.0000
      8 C8          2.9210   -1.6309    0.6081 C.ar      1 <0>         0.0000
      9 C9          2.8783   -1.6520    2.0022 C.ar      1 <0>         0.0000
     10 C10        -1.2059   -0.2947    4.8845 C.2       1 <0>         0.0000
     11 C11        -0.2597    0.1505   -0.2205 C.2       1 <0>         0.0000
     12 C12        -0.2376    0.4719    4.0308 C.3       1 <0>         0.0000
     13 N1          5.3017   -0.9953   -0.4082 N.pl3     1 <0>         0.0000
     14 N2         -0.3194    0.0914    2.6559 N.pl3     1 <0>         0.0000
     15 O1         -1.4439    0.2177    0.1184 O.2       1 <0>         0.0000
     16 O2          4.8710   -3.3532    0.5407 O.2       1 <0>         0.0000
     17 O3          3.7708   -2.6745   -1.6219 O.2       1 <0>         0.0000
     18 O4         -0.8277   -0.5193    6.1703 O.3       1 <0>         0.0000
     19 O5          0.1899    0.6603   -1.3986 O.3       1 <0>         0.0000
     20 S1          4.2498   -2.3351   -0.2914 S.o2      1 <0>         0.0000
     21 Cl1         4.1349   -2.3756    2.9403 Cl        1 <0>         0.0000
     22 H1         -3.7727   -1.9743    6.0534 H         1 <0>         0.0000
     23 H2         -2.9860   -0.8166    3.7078 H         1 <0>         0.0000
     24 H3          1.9175   -1.0191   -1.1997 H         1 <0>         0.0000
     25 H4          1.7615   -1.0924    3.7631 H         1 <0>         0.0000
     26 H5         -1.6832   -1.4784    7.7927 H         1 <0>         0.0000
     27 H6         -0.4339    1.5477    4.0953 H         1 <0>         0.0000
     28 H7          0.7932    0.3089    4.3625 H         1 <0>         0.0000
     29 H8          6.1638   -1.0106    0.1504 H         1 <0>         0.0000
     30 H9          5.4099   -0.5473   -1.3263 H         1 <0>         0.0000
     31 H10        -1.1691    0.2259    2.1433 H         1 <0>         0.0000
     32 H11        -0.5205    1.0766   -1.9319 H         1 <0>         0.0000
@<TRIPOS>BOND
     1    1    2 1
     2    1    5 2
     3    2   10 2
     4    3    6 ar
     5    3    8 ar
     6    4    7 ar
     7    4    9 ar
     8    5   18 1
     9    6    7 ar
    10    6   11 1
    11    7   14 1
    12    8    9 ar
    13    8   20 1
    14    9   21 1
    15   10   12 1
    16   10   18 1
    17   11   15 2
    18   11   19 1
    19   12   14 1
    20   13   20 1
    21   16   20 2
    22   17   20 2
    23    1   22 1
    24    2   23 1
    25    3   24 1
    26    4   25 1
    27    5   26 1
    28   12   27 1
    29   12   28 1
    30   13   29 1
    31   13   30 1
    32   14   31 1
    33   19   32 1
@<TRIPOS>MOLECULE
*****
   32    33     0     0     0
SMALL
NO_CHARGES

@<TRIPOS>ATOM
      1 C1          1.1483    3.8480    4.7539 C.2       1 <0>         0.0000
      2 C2          0.2549    2.8187    5.1356 C.2       1 <0>         0.0000
      3 C3          1.8851   -1.0363   -0.1124 C.ar      1 <0>         0.0000
      4 C4          1.7997   -1.0786    2.6757 C.ar      1 <0>         0.0000
      5 C5          1.7805    3.4026    3.6164 C.2       1 <0>         0.0000
      6 C6          0.8066   -0.4630    0.5610 C.ar      1 <0>         0.0000
      7 C7          0.7638   -0.4841    1.9551 C.ar      1 <0>         0.0000
      8 C8          2.9210   -1.6309    0.6081 C.ar      1 <0>         0.0000
      9 C9          2.8783   -1.6520    2.0022 C.ar      1 <0>         0.0000
     10 C10         0.4047    1.8179    4.2040 C.2       1 <0>         0.0000
     11 C11        -0.2597    0.1505   -0.2205 C.2       1 <0>         0.0000
     12 C12        -0.2376    0.4719    4.0308 C.3       1 <0>         0.0000
     13 N1          3.7571   -2.0119   -1.8940 N.pl3     1 <0>         0.0000
     14 N2         -0.3194    0.0914    2.6559 N.pl3     1 <0>         0.0000
     15 O1         -1.4445   -0.1926   -0.2028 O.2       1 <0>         0.0000
     16 O2          5.4503   -1.5673   -0.0016 O.2       1 <0>         0.0000
     17 O3          4.2353   -3.7732   -0.0757 O.2       1 <0>         0.0000
     18 O4          1.3328    2.1660    3.2745 O.3       1 <0>         0.0000
     19 O5          0.1902    1.1727   -0.9968 O.3       1 <0>         0.0000
     20 S1          4.2498   -2.3351   -0.2914 S.o2      1 <0>         0.0000
     21 Cl1         4.1349   -2.3756    2.9403 Cl        1 <0>         0.0000
     22 H1          1.3115    4.7956    5.2464 H         1 <0>         0.0000
     23 H2         -0.4133    2.8105    5.9849 H         1 <0>         0.0000
     24 H3          1.9175   -1.0191   -1.1997 H         1 <0>         0.0000
     25 H4          1.7615   -1.0924    3.7631 H         1 <0>         0.0000
     26 H5          2.5329    3.8238    2.9659 H         1 <0>         0.0000
     27 H6          0.3325   -0.2990    4.5608 H         1 <0>         0.0000
     28 H7         -1.2529    0.4652    4.4410 H         1 <0>         0.0000
     29 H8          4.2724   -1.2958   -2.4203 H         1 <0>         0.0000
     30 H9          3.4412   -2.8026   -2.4687 H         1 <0>         0.0000
     31 H10        -1.1691    0.2259    2.1433 H         1 <0>         0.0000
     32 H11        -0.5205    1.5931   -1.5264 H         1 <0>         0.0000
@<TRIPOS>BOND
     1    1    2 1
     2    1    5 2
     3    2   10 2
     4    3    6 ar
     5    3    8 ar
     6    4    7 ar
     7    4    9 ar
     8    5   18 1
     9    6    7 ar
    10    6   11 1
    11    7   14 1
    12    8    9 ar
    13    8   20 1
    14    9   21 1
    15   10   12 1
    16   10   18 1
    17   11   15 2
    18   11   19 1
    19   12   14 1
    20   13   20 1
    21   16   20 2
    22   17   20 2
    23    1   22 1
    24    2   23 1
    25    3   24 1
    26    4   25 1
    27    5   26 1
    28   12   27 1
    29   12   28 1
    30   13   29 1
    31   13   30 1
    32   14   31 1
    33   19   32 1
@<TRIPOS>MOLECULE
*****
   32    33     0     0     0
SMALL
NO_CHARGES

@<TRIPOS>ATOM
      1 C1         -2.8522   -1.4439    5.8570 C.2       1 <0>         0.0000
      2 C2         -2.4436   -0.8436    4.6421 C.2       1 <0>         0.0000
      3 C3          1.8851   -1.0363   -0.1124 C.ar      1 <0>         0.0000
      4 C4          1.7997   -1.0786    2.6757 C.ar      1 <0>         0.0000
      5 C5         -1.8349   -1.2192    6.7551 C.2       1 <0>         0.0000
      6 C6          0.8066   -0.4630    0.5610 C.ar      1 <0>         0.0000
      7 C7          0.7638   -0.4841    1.9551 C.ar      1 <0>         0.0000
      8 C8          2.9210   -1.6309    0.6081 C.ar      1 <0>         0.0000
      9 C9          2.8783   -1.6520    2.0022 C.ar      1 <0>         0.0000
     10 C10        -1.2059   -0.2947    4.8845 C.2       1 <0>         0.0000
     11 C11        -0.2597    0.1505   -0.2205 C.2       1 <0>         0.0000
     12 C12        -0.2376    0.4719    4.0308 C.3       1 <0>         0.0000
     13 N1          3.7571   -2.0119   -1.8940 N.pl3     1 <0>         0.0000
     14 N2         -0.3194    0.0914    2.6559 N.pl3     1 <0>         0.0000
     15 O1         -1.4439    0.2177    0.1184 O.2       1 <0>         0.0000
     16 O2          5.4503   -1.5673   -0.0016 O.2       1 <0>         0.0000
     17 O3          4.2353   -3.7732   -0.0757 O.2       1 <0>         0.0000
     18 O4         -0.8277   -0.5193    6.1703 O.3       1 <0>         0.0000
     19 O5          0.1899    0.6603   -1.3986 O.3       1 <0>         0.0000
     20 S1          4.2498   -2.3351   -0.2914 S.o2      1 <0>         0.0000
     21 Cl1         4.1349   -2.3756    2.9403 Cl        1 <0>         0.0000
     22 H1         -3.7727   -1.9743    6.0534 H         1 <0>         0.0000
     23 H2         -2.9860   -0.8166    3.7078 H         1 <0>         0.0000
     24 H3          1.9175   -1.0191   -1.1997 H         1 <0>         0.0000
     25 H4          1.7615   -1.0924    3.7631 H         1 <0>         0.0000
     26 H5         -1.6832   -1.4784    7.7927 H         1 <0>         0.0000
     27 H6         -0.4339    1.5477    4.0953 H         1 <0>         0.0000
     28 H7          0.7932    0.3089    4.3625 H         1 <0>         0.0000
     29 H8          4.2724   -1.2958   -2.4203 H         1 <0>         0.0000
     30 H9          3.4412   -2.8026   -2.4687 H         1 <0>         0.0000
     31 H10        -1.1691    0.2259    2.1433 H         1 <0>         0.0000
     32 H11        -0.5205    1.0766   -1.9319 H         1 <0>         0.0000
@<TRIPOS>BOND
     1    1    2 1
     2    1    5 2
     3    2   10 2
     4    3    6 ar
     5    3    8 ar
     6    4    7 ar
     7    4    9 ar
     8    5   18 1
     9    6    7 ar
    10    6   11 1
    11    7   14 1
    12    8    9 ar
    13    8   20 1
    14    9   21 1
    15   10   12 1
    16   10   18 1
    17   11   15 2
    18   11   19 1
    19   12   14 1
    20   13   20 1
    21   16   20 2
    22   17   20 2
    23    1   22 1
    24    2   23 1
    25    3   24 1
    26    4   25 1
    27    5   26 1
    28   12   27 1
    29   12   28 1
    30   13   29 1
    31   13   30 1
    32   14   31 1
    33   19   32 1
@<TRIPOS>MOLECULE
*****
   32    33     0     0     0
SMALL
NO_CHARGES

@<TRIPOS>ATOM
      1 C1         -2.3991   -1.3939    6.4158 C.2       1 <0>         0.0000
      2 C2         -1.1814   -0.7065    6.1967 C.2       1 <0>         0.0000
      3 C3          1.8851   -1.0363   -0.1124 C.ar      1 <0>         0.0000
      4 C4          1.7997   -1.0786    2.6757 C.ar      1 <0>         0.0000
      5 C5         -3.0809   -1.3530    5.2219 C.2       1 <0>         0.0000
      6 C6          0.8066   -0.4630    0.5610 C.ar      1 <0>         0.0000
      7 C7          0.7638   -0.4841    1.9551 C.ar      1 <0>         0.0000
      8 C8          2.9210   -1.6309    0.6081 C.ar      1 <0>         0.0000
      9 C9          2.8783   -1.6520    2.0022 C.ar      1 <0>         0.0000
     10 C10        -1.2059   -0.2947    4.8845 C.2       1 <0>         0.0000
     11 C11        -0.2597    0.1505   -0.2205 C.2       1 <0>         0.0000
     12 C12        -0.2376    0.4719    4.0308 C.3       1 <0>         0.0000
     13 N1          3.6819   -3.9315   -0.5023 N.pl3     1 <0>         0.0000
     14 N2         -0.3194    0.0914    2.6559 N.pl3     1 <0>         0.0000
     15 O1         -1.4439    0.2177    0.1184 O.2       1 <0>         0.0000
     16 O2          4.3156   -1.6812   -1.5886 O.2       1 <0>         0.0000
     17 O3          5.4206   -2.3623    0.5707 O.2       1 <0>         0.0000
     18 O4         -2.3603   -0.6849    4.2833 O.3       1 <0>         0.0000
     19 O5          0.1899    0.6603   -1.3986 O.3       1 <0>         0.0000
     20 S1          4.2498   -2.3351   -0.2914 S.o2      1 <0>         0.0000
     21 Cl1         4.1349   -2.3756    2.9403 Cl        1 <0>         0.0000
     22 H1         -2.7377   -1.8604    7.3295 H         1 <0>         0.0000
     23 H2         -0.3871   -0.5341    6.9090 H         1 <0>         0.0000
     24 H3          1.9175   -1.0191   -1.1997 H         1 <0>         0.0000
     25 H4          1.7615   -1.0924    3.7631 H         1 <0>         0.0000
     26 H5         -4.0381   -1.7316    4.8945 H         1 <0>         0.0000
     27 H6         -0.4339    1.5477    4.0953 H         1 <0>         0.0000
     28 H7          0.7932    0.3089    4.3625 H         1 <0>         0.0000
     29 H8          3.3857   -4.2160   -1.4440 H         1 <0>         0.0000
     30 H9          4.1398   -4.6794    0.0326 H         1 <0>         0.0000
     31 H10        -1.1691    0.2259    2.1433 H         1 <0>         0.0000
     32 H11        -0.5205    1.0766   -1.9319 H         1 <0>         0.0000
@<TRIPOS>BOND
     1    1    2 1
     2    1    5 2
     3    2   10 2
     4    3    6 ar
     5    3    8 ar
     6    4    7 ar
     7    4    9 ar
     8    5   18 1
     9    6    7 ar
    10    6   11 1
    11    7   14 1
    12    8    9 ar
    13    8   20 1
    14    9   21 1
    15   10   12 1
    16   10   18 1
    17   11   15 2
    18   11   19 1
    19   12   14 1
    20   13   20 1
    21   16   20 2
    22   17   20 2
    23    1   22 1
    24    2   23 1
    25    3   24 1
    26    4   25 1
    27    5   26 1
    28   12   27 1
    29   12   28 1
    30   13   29 1
    31   13   30 1
    32   14   31 1
    33   19   32 1
