@<TRIPOS>MOLECULE
*****
   27    27     0     0     0
SMALL
NO_CHARGES

@<TRIPOS>ATOM
      1 C1          1.8851   -1.0363   -0.1124 C.ar      1 <0>         0.0000
      2 C2          2.8783   -1.6520    2.0022 C.ar      1 <0>         0.0000
      3 C3          0.8066   -0.4630    0.5610 C.ar      1 <0>         0.0000
      4 C4          1.7997   -1.0786    2.6757 C.ar      1 <0>         0.0000
      5 C5          2.9210   -1.6309    0.6081 C.ar      1 <0>         0.0000
      6 C6          0.7638   -0.4841    1.9551 C.ar      1 <0>         0.0000
      7 C7          5.0798   -4.3090   -1.1437 C.2       1 <0>         0.0000
      8 C8         -1.7603   -1.0894    2.9632 C.3       1 <0>         0.0000
      9 C9          4.0740   -2.2446   -0.1116 C.3       1 <0>         0.0000
     10 C10         3.8727   -3.7267   -0.4489 C.3       1 <0>         0.0000
     11 O1          6.0956   -3.6724   -1.3928 O.2       1 <0>         0.0000
     12 O2         -0.1350    0.6029    4.1333 O.2       1 <0>         0.0000
     13 O3         -1.1966    1.2405    1.9396 O.2       1 <0>         0.0000
     14 O4          4.9125   -5.6088   -1.4911 O.3       1 <0>         0.0000
     15 S1         -0.5850    0.2354    2.7982 S.o2      1 <0>         0.0000
     16 H1          1.9097   -1.0154   -1.1987 H         1 <0>         0.0000
     17 H2          3.6806   -2.1133    2.5719 H         1 <0>         0.0000
     18 H3          0.0045   -0.0029   -0.0100 H         1 <0>         0.0000
     19 H4          1.7763   -1.1011    3.7620 H         1 <0>         0.0000
     20 H5         -2.6382   -0.7077    3.4867 H         1 <0>         0.0000
     21 H6         -2.0311   -1.4358    1.9647 H         1 <0>         0.0000
     22 H7         -1.2943   -1.8939    3.5340 H         1 <0>         0.0000
     23 H8          4.2948   -1.6862   -1.0375 H         1 <0>         0.0000
     24 H9          4.9824   -2.1464    0.5062 H         1 <0>         0.0000
     25 H10         3.7246   -4.3090    0.4690 H         1 <0>         0.0000
     26 H11         2.9728   -3.8884   -1.0529 H         1 <0>         0.0000
     27 H12         5.6678   -6.0190   -1.9637 H         1 <0>         0.0000
@<TRIPOS>BOND
     1    1    3 ar
     2    1    5 ar
     3    2    4 ar
     4    2    5 ar
     5    3    6 ar
     6    4    6 ar
     7    5    9 1
     8    6   15 1
     9    7   10 1
    10    7   11 2
    11    7   14 1
    12    8   15 1
    13    9   10 1
    14   12   15 2
    15   13   15 2
    16    1   16 1
    17    2   17 1
    18    3   18 1
    19    4   19 1
    20    8   20 1
    21    8   21 1
    22    8   22 1
    23    9   23 1
    24    9   24 1
    25   10   25 1
    26   10   26 1
    27   14   27 1
@<TRIPOS>MOLECULE
*****
   27    27     0     0     0
SMALL
NO_CHARGES

@<TRIPOS>ATOM
      1 C1          1.8851   -1.0363   -0.1124 C.ar      1 <0>         0.0000
      2 C2          2.8783   -1.6520    2.0022 C.ar      1 <0>         0.0000
      3 C3          0.8066   -0.4630    0.5610 C.ar      1 <0>         0.0000
      4 C4          1.7997   -1.0786    2.6757 C.ar      1 <0>         0.0000
      5 C5          2.9210   -1.6309    0.6081 C.ar      1 <0>         0.0000
      6 C6          0.7638   -0.4841    1.9551 C.ar      1 <0>         0.0000
      7 C7          5.0798   -4.3090   -1.1437 C.2       1 <0>         0.0000
      8 C8         -0.0922    1.9242    3.0600 C.3       1 <0>         0.0000
      9 C9          4.0740   -2.2446   -0.1116 C.3       1 <0>         0.0000
     10 C10         3.8727   -3.7267   -0.4489 C.3       1 <0>         0.0000
     11 O1          6.0956   -3.6724   -1.3928 O.2       1 <0>         0.0000
     12 O2         -1.7282    0.2375    1.8965 O.2       1 <0>         0.0000
     13 O3         -0.7028   -0.3807    4.1129 O.2       1 <0>         0.0000
     14 O4          4.9125   -5.6088   -1.4911 O.3       1 <0>         0.0000
     15 S1         -0.5850    0.2354    2.7982 S.o2      1 <0>         0.0000
     16 H1          1.9097   -1.0154   -1.1987 H         1 <0>         0.0000
     17 H2          3.6806   -2.1133    2.5719 H         1 <0>         0.0000
     18 H3          0.0045   -0.0029   -0.0100 H         1 <0>         0.0000
     19 H4          1.7763   -1.1011    3.7620 H         1 <0>         0.0000
     20 H5         -0.8962    2.4396    3.5878 H         1 <0>         0.0000
     21 H6          0.8210    1.9279    3.6569 H         1 <0>         0.0000
     22 H7          0.0844    2.3860    2.0874 H         1 <0>         0.0000
     23 H8          4.2948   -1.6862   -1.0375 H         1 <0>         0.0000
     24 H9          4.9824   -2.1464    0.5062 H         1 <0>         0.0000
     25 H10         3.7246   -4.3090    0.4690 H         1 <0>         0.0000
     26 H11         2.9728   -3.8884   -1.0529 H         1 <0>         0.0000
     27 H12         5.6678   -6.0190   -1.9637 H         1 <0>         0.0000
@<TRIPOS>BOND
     1    1    3 ar
     2    1    5 ar
     3    2    4 ar
     4    2    5 ar
     5    3    6 ar
     6    4    6 ar
     7    5    9 1
     8    6   15 1
     9    7   10 1
    10    7   11 2
    11    7   14 1
    12    8   15 1
    13    9   10 1
    14   12   15 2
    15   13   15 2
    16    1   16 1
    17    2   17 1
    18    3   18 1
    19    4   19 1
    20    8   20 1
    21    8   21 1
    22    8   22 1
    23    9   23 1
    24    9   24 1
    25   10   25 1
    26   10   26 1
    27   14   27 1
@<TRIPOS>MOLECULE
*****
   27    27     0     0     0
SMALL
NO_CHARGES

@<TRIPOS>ATOM
      1 C1          1.8851   -1.0363   -0.1124 C.ar      1 <0>         0.0000
      2 C2          2.8783   -1.6520    2.0022 C.ar      1 <0>         0.0000
      3 C3          0.8066   -0.4630    0.5610 C.ar      1 <0>         0.0000
      4 C4          1.7997   -1.0786    2.6757 C.ar      1 <0>         0.0000
      5 C5          2.9210   -1.6309    0.6081 C.ar      1 <0>         0.0000
      6 C6          0.7638   -0.4841    1.9551 C.ar      1 <0>         0.0000
      7 C7          5.0798   -4.3090   -1.1437 C.2       1 <0>         0.0000
      8 C8         -1.7603   -1.0894    2.9632 C.3       1 <0>         0.0000
      9 C9          4.0740   -2.2446   -0.1116 C.3       1 <0>         0.0000
     10 C10         3.8727   -3.7267   -0.4489 C.3       1 <0>         0.0000
     11 O1          6.0137   -4.8402   -0.5563 O.2       1 <0>         0.0000
     12 O2         -0.1350    0.6029    4.1333 O.2       1 <0>         0.0000
     13 O3         -1.1966    1.2405    1.9396 O.2       1 <0>         0.0000
     14 O4          5.0374   -4.1577   -2.4903 O.3       1 <0>         0.0000
     15 S1         -0.5850    0.2354    2.7982 S.o2      1 <0>         0.0000
     16 H1          1.9097   -1.0154   -1.1987 H         1 <0>         0.0000
     17 H2          3.6806   -2.1133    2.5719 H         1 <0>         0.0000
     18 H3          0.0045   -0.0029   -0.0100 H         1 <0>         0.0000
     19 H4          1.7763   -1.1011    3.7620 H         1 <0>         0.0000
     20 H5         -2.6382   -0.7077    3.4867 H         1 <0>         0.0000
     21 H6         -2.0311   -1.4358    1.9647 H         1 <0>         0.0000
     22 H7         -1.2943   -1.8939    3.5340 H         1 <0>         0.0000
     23 H8          4.2948   -1.6862   -1.0375 H         1 <0>         0.0000
     24 H9          4.9824   -2.1464    0.5062 H         1 <0>         0.0000
     25 H10         3.7246   -4.3090    0.4690 H         1 <0>         0.0000
     26 H11         2.9728   -3.8884   -1.0529 H         1 <0>         0.0000
     27 H12         5.8142   -4.5054   -2.9779 H         1 <0>         0.0000
@<TRIPOS>BOND
     1    1    3 ar
     2    1    5 ar
     3    2    4 ar
     4    2    5 ar
     5    3    6 ar
     6    4    6 ar
     7    5    9 1
     8    6   15 1
     9    7   10 1
    10    7   11 2
    11    7   14 1
    12    8   15 1
    13    9   10 1
    14   12   15 2
    15   13   15 2
    16    1   16 1
    17    2   17 1
    18    3   18 1
    19    4   19 1
    20    8   20 1
    21    8   21 1
    22    8   22 1
    23    9   23 1
    24    9   24 1
    25   10   25 1
    26   10   26 1
    27   14   27 1
@<TRIPOS>MOLECULE
*****
   27    27     0     0     0
SMALL
NO_CHARGES

@<TRIPOS>ATOM
      1 C1          1.8851   -1.0363   -0.1124 C.ar      1 <0>         0.0000
      2 C2          2.8783   -1.6520    2.0022 C.ar      1 <0>         0.0000
      3 C3          0.8066   -0.4630    0.5610 C.ar      1 <0>         0.0000
      4 C4          1.7997   -1.0786    2.6757 C.ar      1 <0>         0.0000
      5 C5          2.9210   -1.6309    0.6081 C.ar      1 <0>         0.0000
      6 C6          0.7638   -0.4841    1.9551 C.ar      1 <0>         0.0000
      7 C7          5.0798   -4.3090   -1.1437 C.2       1 <0>         0.0000
      8 C8         -0.0922    1.9242    3.0600 C.3       1 <0>         0.0000
      9 C9          4.0740   -2.2446   -0.1116 C.3       1 <0>         0.0000
     10 C10         3.8727   -3.7267   -0.4489 C.3       1 <0>         0.0000
     11 O1          6.0137   -4.8402   -0.5563 O.2       1 <0>         0.0000
     12 O2         -1.7282    0.2375    1.8965 O.2       1 <0>         0.0000
     13 O3         -0.7028   -0.3807    4.1129 O.2       1 <0>         0.0000
     14 O4          5.0374   -4.1577   -2.4903 O.3       1 <0>         0.0000
     15 S1         -0.5850    0.2354    2.7982 S.o2      1 <0>         0.0000
     16 H1          1.9097   -1.0154   -1.1987 H         1 <0>         0.0000
     17 H2          3.6806   -2.1133    2.5719 H         1 <0>         0.0000
     18 H3          0.0045   -0.0029   -0.0100 H         1 <0>         0.0000
     19 H4          1.7763   -1.1011    3.7620 H         1 <0>         0.0000
     20 H5         -0.8962    2.4396    3.5878 H         1 <0>         0.0000
     21 H6          0.8210    1.9279    3.6569 H         1 <0>         0.0000
     22 H7          0.0844    2.3860    2.0874 H         1 <0>         0.0000
     23 H8          4.2948   -1.6862   -1.0375 H         1 <0>         0.0000
     24 H9          4.9824   -2.1464    0.5062 H         1 <0>         0.0000
     25 H10         3.7246   -4.3090    0.4690 H         1 <0>         0.0000
     26 H11         2.9728   -3.8884   -1.0529 H         1 <0>         0.0000
     27 H12         5.8142   -4.5054   -2.9779 H         1 <0>         0.0000
@<TRIPOS>BOND
     1    1    3 ar
     2    1    5 ar
     3    2    4 ar
     4    2    5 ar
     5    3    6 ar
     6    4    6 ar
     7    5    9 1
     8    6   15 1
     9    7   10 1
    10    7   11 2
    11    7   14 1
    12    8   15 1
    13    9   10 1
    14   12   15 2
    15   13   15 2
    16    1   16 1
    17    2   17 1
    18    3   18 1
    19    4   19 1
    20    8   20 1
    21    8   21 1
    22    8   22 1
    23    9   23 1
    24    9   24 1
    25   10   25 1
    26   10   26 1
    27   14   27 1
@<TRIPOS>MOLECULE
*****
   27    27     0     0     0
SMALL
NO_CHARGES

@<TRIPOS>ATOM
      1 C1          1.8851   -1.0363   -0.1124 C.ar      1 <0>         0.0000
      2 C2          2.8783   -1.6520    2.0022 C.ar      1 <0>         0.0000
      3 C3          0.8066   -0.4630    0.5610 C.ar      1 <0>         0.0000
      4 C4          1.7997   -1.0786    2.6757 C.ar      1 <0>         0.0000
      5 C5          2.9210   -1.6309    0.6081 C.ar      1 <0>         0.0000
      6 C6          0.7638   -0.4841    1.9551 C.ar      1 <0>         0.0000
      7 C7          2.6886   -3.9346   -1.3620 C.2       1 <0>         0.0000
      8 C8         -1.7603   -1.0894    2.9632 C.3       1 <0>         0.0000
      9 C9          4.0740   -2.2446   -0.1116 C.3       1 <0>         0.0000
     10 C10         3.8727   -3.7267   -0.4489 C.3       1 <0>         0.0000
     11 O1          2.5981   -3.4477   -2.4818 O.2       1 <0>         0.0000
     12 O2         -0.1350    0.6029    4.1333 O.2       1 <0>         0.0000
     13 O3         -1.1966    1.2405    1.9396 O.2       1 <0>         0.0000
     14 O4          1.7174   -4.6965   -0.8013 O.3       1 <0>         0.0000
     15 S1         -0.5850    0.2354    2.7982 S.o2      1 <0>         0.0000
     16 H1          1.9097   -1.0154   -1.1987 H         1 <0>         0.0000
     17 H2          3.6806   -2.1133    2.5719 H         1 <0>         0.0000
     18 H3          0.0045   -0.0029   -0.0100 H         1 <0>         0.0000
     19 H4          1.7763   -1.1011    3.7620 H         1 <0>         0.0000
     20 H5         -2.6382   -0.7077    3.4867 H         1 <0>         0.0000
     21 H6         -2.0311   -1.4358    1.9647 H         1 <0>         0.0000
     22 H7         -1.2943   -1.8939    3.5340 H         1 <0>         0.0000
     23 H8          4.2948   -1.6862   -1.0375 H         1 <0>         0.0000
     24 H9          4.9824   -2.1464    0.5062 H         1 <0>         0.0000
     25 H10         4.7510   -4.1198   -0.9755 H         1 <0>         0.0000
     26 H11         3.7675   -4.3392    0.4538 H         1 <0>         0.0000
     27 H12         0.9209   -4.8386   -1.3558 H         1 <0>         0.0000
@<TRIPOS>BOND
     1    1    3 ar
     2    1    5 ar
     3    2    4 ar
     4    2    5 ar
     5    3    6 ar
     6    4    6 ar
     7    5    9 1
     8    6   15 1
     9    7   10 1
    10    7   11 2
    11    7   14 1
    12    8   15 1
    13    9   10 1
    14   12   15 2
    15   13   15 2
    16    1   16 1
    17    2   17 1
    18    3   18 1
    19    4   19 1
    20    8   20 1
    21    8   21 1
    22    8   22 1
    23    9   23 1
    24    9   24 1
    25   10   25 1
    26   10   26 1
    27   14   27 1
@<TRIPOS>MOLECULE
*****
   27    27     0     0     0
SMALL
NO_CHARGES

@<TRIPOS>ATOM
      1 C1          1.8851   -1.0363   -0.1124 C.ar      1 <0>         0.0000
      2 C2          2.8783   -1.6520    2.0022 C.ar      1 <0>         0.0000
      3 C3          0.8066   -0.4630    0.5610 C.ar      1 <0>         0.0000
      4 C4          1.7997   -1.0786    2.6757 C.ar      1 <0>         0.0000
      5 C5          2.9210   -1.6309    0.6081 C.ar      1 <0>         0.0000
      6 C6          0.7638   -0.4841    1.9551 C.ar      1 <0>         0.0000
      7 C7          2.6886   -3.9346   -1.3620 C.2       1 <0>         0.0000
      8 C8         -0.0922    1.9242    3.0600 C.3       1 <0>         0.0000
      9 C9          4.0740   -2.2446   -0.1116 C.3       1 <0>         0.0000
     10 C10         3.8727   -3.7267   -0.4489 C.3       1 <0>         0.0000
     11 O1          2.5981   -3.4477   -2.4818 O.2       1 <0>         0.0000
     12 O2         -1.7282    0.2375    1.8965 O.2       1 <0>         0.0000
     13 O3         -0.7028   -0.3807    4.1129 O.2       1 <0>         0.0000
     14 O4          1.7174   -4.6965   -0.8013 O.3       1 <0>         0.0000
     15 S1         -0.5850    0.2354    2.7982 S.o2      1 <0>         0.0000
     16 H1          1.9097   -1.0154   -1.1987 H         1 <0>         0.0000
     17 H2          3.6806   -2.1133    2.5719 H         1 <0>         0.0000
     18 H3          0.0045   -0.0029   -0.0100 H         1 <0>         0.0000
     19 H4          1.7763   -1.1011    3.7620 H         1 <0>         0.0000
     20 H5         -0.8962    2.4396    3.5878 H         1 <0>         0.0000
     21 H6          0.8210    1.9279    3.6569 H         1 <0>         0.0000
     22 H7          0.0844    2.3860    2.0874 H         1 <0>         0.0000
     23 H8          4.2948   -1.6862   -1.0375 H         1 <0>         0.0000
     24 H9          4.9824   -2.1464    0.5062 H         1 <0>         0.0000
     25 H10         4.7510   -4.1198   -0.9755 H         1 <0>         0.0000
     26 H11         3.7675   -4.3392    0.4538 H         1 <0>         0.0000
     27 H12         0.9209   -4.8386   -1.3558 H         1 <0>         0.0000
@<TRIPOS>BOND
     1    1    3 ar
     2    1    5 ar
     3    2    4 ar
     4    2    5 ar
     5    3    6 ar
     6    4    6 ar
     7    5    9 1
     8    6   15 1
     9    7   10 1
    10    7   11 2
    11    7   14 1
    12    8   15 1
    13    9   10 1
    14   12   15 2
    15   13   15 2
    16    1   16 1
    17    2   17 1
    18    3   18 1
    19    4   19 1
    20    8   20 1
    21    8   21 1
    22    8   22 1
    23    9   23 1
    24    9   24 1
    25   10   25 1
    26   10   26 1
    27   14   27 1
@<TRIPOS>MOLECULE
*****
   27    27     0     0     0
SMALL
NO_CHARGES

@<TRIPOS>ATOM
      1 C1          1.8851   -1.0363   -0.1124 C.ar      1 <0>         0.0000
      2 C2          2.8783   -1.6520    2.0022 C.ar      1 <0>         0.0000
      3 C3          0.8066   -0.4630    0.5610 C.ar      1 <0>         0.0000
      4 C4          1.7997   -1.0786    2.6757 C.ar      1 <0>         0.0000
      5 C5          2.9210   -1.6309    0.6081 C.ar      1 <0>         0.0000
      6 C6          0.7638   -0.4841    1.9551 C.ar      1 <0>         0.0000
      7 C7          3.6301   -4.5524    0.7915 C.2       1 <0>         0.0000
      8 C8         -1.7603   -1.0894    2.9632 C.3       1 <0>         0.0000
      9 C9          4.0740   -2.2446   -0.1116 C.3       1 <0>         0.0000
     10 C10         3.8727   -3.7267   -0.4489 C.3       1 <0>         0.0000
     11 O1          4.4223   -4.6336    1.7216 O.2       1 <0>         0.0000
     12 O2         -0.1350    0.6029    4.1333 O.2       1 <0>         0.0000
     13 O3         -1.1966    1.2405    1.9396 O.2       1 <0>         0.0000
     14 O4          2.4513   -5.2213    0.7577 O.3       1 <0>         0.0000
     15 S1         -0.5850    0.2354    2.7982 S.o2      1 <0>         0.0000
     16 H1          1.9097   -1.0154   -1.1987 H         1 <0>         0.0000
     17 H2          3.6806   -2.1133    2.5719 H         1 <0>         0.0000
     18 H3          0.0045   -0.0029   -0.0100 H         1 <0>         0.0000
     19 H4          1.7763   -1.1011    3.7620 H         1 <0>         0.0000
     20 H5         -2.6382   -0.7077    3.4867 H         1 <0>         0.0000
     21 H6         -2.0311   -1.4358    1.9647 H         1 <0>         0.0000
     22 H7         -1.2943   -1.8939    3.5340 H         1 <0>         0.0000
     23 H8          4.2948   -1.6862   -1.0375 H         1 <0>         0.0000
     24 H9          4.9824   -2.1464    0.5062 H         1 <0>         0.0000
     25 H10         2.9926   -3.8547   -1.0910 H         1 <0>         0.0000
     26 H11         4.7173   -4.1338   -1.0161 H         1 <0>         0.0000
     27 H12         2.2651   -5.7862    1.5376 H         1 <0>         0.0000
@<TRIPOS>BOND
     1    1    3 ar
     2    1    5 ar
     3    2    4 ar
     4    2    5 ar
     5    3    6 ar
     6    4    6 ar
     7    5    9 1
     8    6   15 1
     9    7   10 1
    10    7   11 2
    11    7   14 1
    12    8   15 1
    13    9   10 1
    14   12   15 2
    15   13   15 2
    16    1   16 1
    17    2   17 1
    18    3   18 1
    19    4   19 1
    20    8   20 1
    21    8   21 1
    22    8   22 1
    23    9   23 1
    24    9   24 1
    25   10   25 1
    26   10   26 1
    27   14   27 1
@<TRIPOS>MOLECULE
*****
   27    27     0     0     0
SMALL
NO_CHARGES

@<TRIPOS>ATOM
      1 C1          1.8851   -1.0363   -0.1124 C.ar      1 <0>         0.0000
      2 C2          2.8783   -1.6520    2.0022 C.ar      1 <0>         0.0000
      3 C3          0.8066   -0.4630    0.5610 C.ar      1 <0>         0.0000
      4 C4          1.7997   -1.0786    2.6757 C.ar      1 <0>         0.0000
      5 C5          2.9210   -1.6309    0.6081 C.ar      1 <0>         0.0000
      6 C6          0.7638   -0.4841    1.9551 C.ar      1 <0>         0.0000
      7 C7          3.6301   -4.5524    0.7915 C.2       1 <0>         0.0000
      8 C8         -0.0922    1.9242    3.0600 C.3       1 <0>         0.0000
      9 C9          4.0740   -2.2446   -0.1116 C.3       1 <0>         0.0000
     10 C10         3.8727   -3.7267   -0.4489 C.3       1 <0>         0.0000
     11 O1          4.4223   -4.6336    1.7216 O.2       1 <0>         0.0000
     12 O2         -1.7282    0.2375    1.8965 O.2       1 <0>         0.0000
     13 O3         -0.7028   -0.3807    4.1129 O.2       1 <0>         0.0000
     14 O4          2.4513   -5.2213    0.7577 O.3       1 <0>         0.0000
     15 S1         -0.5850    0.2354    2.7982 S.o2      1 <0>         0.0000
     16 H1          1.9097   -1.0154   -1.1987 H         1 <0>         0.0000
     17 H2          3.6806   -2.1133    2.5719 H         1 <0>         0.0000
     18 H3          0.0045   -0.0029   -0.0100 H         1 <0>         0.0000
     19 H4          1.7763   -1.1011    3.7620 H         1 <0>         0.0000
     20 H5         -0.8962    2.4396    3.5878 H         1 <0>         0.0000
     21 H6          0.8210    1.9279    3.6569 H         1 <0>         0.0000
     22 H7          0.0844    2.3860    2.0874 H         1 <0>         0.0000
     23 H8          4.2948   -1.6862   -1.0375 H         1 <0>         0.0000
     24 H9          4.9824   -2.1464    0.5062 H         1 <0>         0.0000
     25 H10         2.9926   -3.8547   -1.0910 H         1 <0>         0.0000
     26 H11         4.7173   -4.1338   -1.0161 H         1 <0>         0.0000
     27 H12         2.2651   -5.7862    1.5376 H         1 <0>         0.0000
@<TRIPOS>BOND
     1    1    3 ar
     2    1    5 ar
     3    2    4 ar
     4    2    5 ar
     5    3    6 ar
     6    4    6 ar
     7    5    9 1
     8    6   15 1
     9    7   10 1
    10    7   11 2
    11    7   14 1
    12    8   15 1
    13    9   10 1
    14   12   15 2
    15   13   15 2
    16    1   16 1
    17    2   17 1
    18    3   18 1
    19    4   19 1
    20    8   20 1
    21    8   21 1
    22    8   22 1
    23    9   23 1
    24    9   24 1
    25   10   25 1
    26   10   26 1
    27   14   27 1
@<TRIPOS>MOLECULE
*****
   27    27     0     0     0
SMALL
NO_CHARGES

@<TRIPOS>ATOM
      1 C1          1.8851   -1.0363   -0.1124 C.ar      1 <0>         0.0000
      2 C2          2.8783   -1.6520    2.0022 C.ar      1 <0>         0.0000
      3 C3          0.8066   -0.4630    0.5610 C.ar      1 <0>         0.0000
      4 C4          1.7997   -1.0786    2.6757 C.ar      1 <0>         0.0000
      5 C5          2.9210   -1.6309    0.6081 C.ar      1 <0>         0.0000
      6 C6          0.7638   -0.4841    1.9551 C.ar      1 <0>         0.0000
      7 C7          3.7302   -4.5527    0.8334 C.2       1 <0>         0.0000
      8 C8         -1.7603   -1.0894    2.9632 C.3       1 <0>         0.0000
      9 C9          4.0740   -2.2446   -0.1116 C.3       1 <0>         0.0000
     10 C10         4.7112   -3.4226    0.6349 C.3       1 <0>         0.0000
     11 O1          3.3881   -4.9730    1.9314 O.2       1 <0>         0.0000
     12 O2         -0.1350    0.6029    4.1333 O.2       1 <0>         0.0000
     13 O3         -1.1966    1.2405    1.9396 O.2       1 <0>         0.0000
     14 O4          3.2855   -5.0766   -0.3353 O.3       1 <0>         0.0000
     15 S1         -0.5850    0.2354    2.7982 S.o2      1 <0>         0.0000
     16 H1          1.9097   -1.0154   -1.1987 H         1 <0>         0.0000
     17 H2          3.6806   -2.1133    2.5719 H         1 <0>         0.0000
     18 H3          0.0045   -0.0029   -0.0100 H         1 <0>         0.0000
     19 H4          1.7763   -1.1011    3.7620 H         1 <0>         0.0000
     20 H5         -2.6382   -0.7077    3.4867 H         1 <0>         0.0000
     21 H6         -2.0311   -1.4358    1.9647 H         1 <0>         0.0000
     22 H7         -1.2943   -1.8939    3.5340 H         1 <0>         0.0000
     23 H8          3.7709   -2.5728   -1.1207 H         1 <0>         0.0000
     24 H9          4.8479   -1.4770   -0.2799 H         1 <0>         0.0000
     25 H10         5.5502   -3.8299    0.0575 H         1 <0>         0.0000
     26 H11         5.1339   -3.1139    1.5977 H         1 <0>         0.0000
     27 H12         2.6607   -5.8279   -0.2494 H         1 <0>         0.0000
@<TRIPOS>BOND
     1    1    3 ar
     2    1    5 ar
     3    2    4 ar
     4    2    5 ar
     5    3    6 ar
     6    4    6 ar
     7    5    9 1
     8    6   15 1
     9    7   10 1
    10    7   11 2
    11    7   14 1
    12    8   15 1
    13    9   10 1
    14   12   15 2
    15   13   15 2
    16    1   16 1
    17    2   17 1
    18    3   18 1
    19    4   19 1
    20    8   20 1
    21    8   21 1
    22    8   22 1
    23    9   23 1
    24    9   24 1
    25   10   25 1
    26   10   26 1
    27   14   27 1
@<TRIPOS>MOLECULE
*****
   27    27     0     0     0
SMALL
NO_CHARGES

@<TRIPOS>ATOM
      1 C1          1.8851   -1.0363   -0.1124 C.ar      1 <0>         0.0000
      2 C2          2.8783   -1.6520    2.0022 C.ar      1 <0>         0.0000
      3 C3          0.8066   -0.4630    0.5610 C.ar      1 <0>         0.0000
      4 C4          1.7997   -1.0786    2.6757 C.ar      1 <0>         0.0000
      5 C5          2.9210   -1.6309    0.6081 C.ar      1 <0>         0.0000
      6 C6          0.7638   -0.4841    1.9551 C.ar      1 <0>         0.0000
      7 C7          3.7302   -4.5527    0.8334 C.2       1 <0>         0.0000
      8 C8         -0.0922    1.9242    3.0600 C.3       1 <0>         0.0000
      9 C9          4.0740   -2.2446   -0.1116 C.3       1 <0>         0.0000
     10 C10         4.7112   -3.4226    0.6349 C.3       1 <0>         0.0000
     11 O1          3.3881   -4.9730    1.9314 O.2       1 <0>         0.0000
     12 O2         -1.7282    0.2375    1.8965 O.2       1 <0>         0.0000
     13 O3         -0.7028   -0.3807    4.1129 O.2       1 <0>         0.0000
     14 O4          3.2855   -5.0766   -0.3353 O.3       1 <0>         0.0000
     15 S1         -0.5850    0.2354    2.7982 S.o2      1 <0>         0.0000
     16 H1          1.9097   -1.0154   -1.1987 H         1 <0>         0.0000
     17 H2          3.6806   -2.1133    2.5719 H         1 <0>         0.0000
     18 H3          0.0045   -0.0029   -0.0100 H         1 <0>         0.0000
     19 H4          1.7763   -1.1011    3.7620 H         1 <0>         0.0000
     20 H5         -0.8962    2.4396    3.5878 H         1 <0>         0.0000
     21 H6          0.8210    1.9279    3.6569 H         1 <0>         0.0000
     22 H7          0.0844    2.3860    2.0874 H         1 <0>         0.0000
     23 H8          3.7709   -2.5728   -1.1207 H         1 <0>         0.0000
     24 H9          4.8479   -1.4770   -0.2799 H         1 <0>         0.0000
     25 H10         5.5502   -3.8299    0.0575 H         1 <0>         0.0000
     26 H11         5.1339   -3.1139    1.5977 H         1 <0>         0.0000
     27 H12         2.6607   -5.8279   -0.2494 H         1 <0>         0.0000
@<TRIPOS>BOND
     1    1    3 ar
     2    1    5 ar
     3    2    4 ar
     4    2    5 ar
     5    3    6 ar
     6    4    6 ar
     7    5    9 1
     8    6   15 1
     9    7   10 1
    10    7   11 2
    11    7   14 1
    12    8   15 1
    13    9   10 1
    14   12   15 2
    15   13   15 2
    16    1   16 1
    17    2   17 1
    18    3   18 1
    19    4   19 1
    20    8   20 1
    21    8   21 1
    22    8   22 1
    23    9   23 1
    24    9   24 1
    25   10   25 1
    26   10   26 1
    27   14   27 1
@<TRIPOS>MOLECULE
*****
   27    27     0     0     0
SMALL
NO_CHARGES

@<TRIPOS>ATOM
      1 C1          1.8851   -1.0363   -0.1124 C.ar      1 <0>         0.0000
      2 C2          2.8783   -1.6520    2.0022 C.ar      1 <0>         0.0000
      3 C3          0.8066   -0.4630    0.5610 C.ar      1 <0>         0.0000
      4 C4          1.7997   -1.0786    2.6757 C.ar      1 <0>         0.0000
      5 C5          2.9210   -1.6309    0.6081 C.ar      1 <0>         0.0000
      6 C6          0.7638   -0.4841    1.9551 C.ar      1 <0>         0.0000
      7 C7          6.2887   -3.4317    0.0448 C.2       1 <0>         0.0000
      8 C8         -1.7603   -1.0894    2.9632 C.3       1 <0>         0.0000
      9 C9          4.0740   -2.2446   -0.1116 C.3       1 <0>         0.0000
     10 C10         5.1276   -2.8564    0.8193 C.3       1 <0>         0.0000
     11 O1          6.3765   -3.3988   -1.1761 O.2       1 <0>         0.0000
     12 O2         -0.1350    0.6029    4.1333 O.2       1 <0>         0.0000
     13 O3         -1.1966    1.2405    1.9396 O.2       1 <0>         0.0000
     14 O4          7.2162   -4.0169    0.8418 O.3       1 <0>         0.0000
     15 S1         -0.5850    0.2354    2.7982 S.o2      1 <0>         0.0000
     16 H1          1.9097   -1.0154   -1.1987 H         1 <0>         0.0000
     17 H2          3.6806   -2.1133    2.5719 H         1 <0>         0.0000
     18 H3          0.0045   -0.0029   -0.0100 H         1 <0>         0.0000
     19 H4          1.7763   -1.1011    3.7620 H         1 <0>         0.0000
     20 H5         -2.6382   -0.7077    3.4867 H         1 <0>         0.0000
     21 H6         -2.0311   -1.4358    1.9647 H         1 <0>         0.0000
     22 H7         -1.2943   -1.8939    3.5340 H         1 <0>         0.0000
     23 H8          3.7232   -3.0134   -0.8213 H         1 <0>         0.0000
     24 H9          4.5620   -1.4782   -0.7369 H         1 <0>         0.0000
     25 H10         5.5406   -2.0875    1.4838 H         1 <0>         0.0000
     26 H11         4.6960   -3.6188    1.4776 H         1 <0>         0.0000
     27 H12         7.9781   -4.4214    0.3747 H         1 <0>         0.0000
@<TRIPOS>BOND
     1    1    3 ar
     2    1    5 ar
     3    2    4 ar
     4    2    5 ar
     5    3    6 ar
     6    4    6 ar
     7    5    9 1
     8    6   15 1
     9    7   10 1
    10    7   11 2
    11    7   14 1
    12    8   15 1
    13    9   10 1
    14   12   15 2
    15   13   15 2
    16    1   16 1
    17    2   17 1
    18    3   18 1
    19    4   19 1
    20    8   20 1
    21    8   21 1
    22    8   22 1
    23    9   23 1
    24    9   24 1
    25   10   25 1
    26   10   26 1
    27   14   27 1
@<TRIPOS>MOLECULE
*****
   27    27     0     0     0
SMALL
NO_CHARGES

@<TRIPOS>ATOM
      1 C1          1.8851   -1.0363   -0.1124 C.ar      1 <0>         0.0000
      2 C2          2.8783   -1.6520    2.0022 C.ar      1 <0>         0.0000
      3 C3          0.8066   -0.4630    0.5610 C.ar      1 <0>         0.0000
      4 C4          1.7997   -1.0786    2.6757 C.ar      1 <0>         0.0000
      5 C5          2.9210   -1.6309    0.6081 C.ar      1 <0>         0.0000
      6 C6          0.7638   -0.4841    1.9551 C.ar      1 <0>         0.0000
      7 C7          6.2887   -3.4317    0.0448 C.2       1 <0>         0.0000
      8 C8         -0.0922    1.9242    3.0600 C.3       1 <0>         0.0000
      9 C9          4.0740   -2.2446   -0.1116 C.3       1 <0>         0.0000
     10 C10         5.1276   -2.8564    0.8193 C.3       1 <0>         0.0000
     11 O1          6.3765   -3.3988   -1.1761 O.2       1 <0>         0.0000
     12 O2         -1.7282    0.2375    1.8965 O.2       1 <0>         0.0000
     13 O3         -0.7028   -0.3807    4.1129 O.2       1 <0>         0.0000
     14 O4          7.2162   -4.0169    0.8418 O.3       1 <0>         0.0000
     15 S1         -0.5850    0.2354    2.7982 S.o2      1 <0>         0.0000
     16 H1          1.9097   -1.0154   -1.1987 H         1 <0>         0.0000
     17 H2          3.6806   -2.1133    2.5719 H         1 <0>         0.0000
     18 H3          0.0045   -0.0029   -0.0100 H         1 <0>         0.0000
     19 H4          1.7763   -1.1011    3.7620 H         1 <0>         0.0000
     20 H5         -0.8962    2.4396    3.5878 H         1 <0>         0.0000
     21 H6          0.8210    1.9279    3.6569 H         1 <0>         0.0000
     22 H7          0.0844    2.3860    2.0874 H         1 <0>         0.0000
     23 H8          3.7232   -3.0134   -0.8213 H         1 <0>         0.0000
     24 H9          4.5620   -1.4782   -0.7369 H         1 <0>         0.0000
     25 H10         5.5406   -2.0875    1.4838 H         1 <0>         0.0000
     26 H11         4.6960   -3.6188    1.4776 H         1 <0>         0.0000
     27 H12         7.9781   -4.4214    0.3747 H         1 <0>         0.0000
@<TRIPOS>BOND
     1    1    3 ar
     2    1    5 ar
     3    2    4 ar
     4    2    5 ar
     5    3    6 ar
     6    4    6 ar
     7    5    9 1
     8    6   15 1
     9    7   10 1
    10    7   11 2
    11    7   14 1
    12    8   15 1
    13    9   10 1
    14   12   15 2
    15   13   15 2
    16    1   16 1
    17    2   17 1
    18    3   18 1
    19    4   19 1
    20    8   20 1
    21    8   21 1
    22    8   22 1
    23    9   23 1
    24    9   24 1
    25   10   25 1
    26   10   26 1
    27   14   27 1
@<TRIPOS>MOLECULE
*****
   27    27     0     0     0
SMALL
NO_CHARGES

@<TRIPOS>ATOM
      1 C1          1.8851   -1.0363   -0.1124 C.ar      1 <0>         0.0000
      2 C2          2.8783   -1.6520    2.0022 C.ar      1 <0>         0.0000
      3 C3          0.8066   -0.4630    0.5610 C.ar      1 <0>         0.0000
      4 C4          1.7997   -1.0786    2.6757 C.ar      1 <0>         0.0000
      5 C5          2.9210   -1.6309    0.6081 C.ar      1 <0>         0.0000
      6 C6          0.7638   -0.4841    1.9551 C.ar      1 <0>         0.0000
      7 C7          5.7804   -0.7769    1.0166 C.2       1 <0>         0.0000
      8 C8         -0.0922    1.9242    3.0600 C.3       1 <0>         0.0000
      9 C9          4.0740   -2.2446   -0.1116 C.3       1 <0>         0.0000
     10 C10         5.3895   -2.1944    0.6743 C.3       1 <0>         0.0000
     11 O1          5.9353   -0.3704    2.1611 O.2       1 <0>         0.0000
     12 O2         -1.7282    0.2375    1.8965 O.2       1 <0>         0.0000
     13 O3         -0.7028   -0.3807    4.1129 O.2       1 <0>         0.0000
     14 O4          5.9153    0.0119   -0.0778 O.3       1 <0>         0.0000
     15 S1         -0.5850    0.2354    2.7982 S.o2      1 <0>         0.0000
     16 H1          1.9097   -1.0154   -1.1987 H         1 <0>         0.0000
     17 H2          3.6806   -2.1133    2.5719 H         1 <0>         0.0000
     18 H3          0.0045   -0.0029   -0.0100 H         1 <0>         0.0000
     19 H4          1.7763   -1.1011    3.7620 H         1 <0>         0.0000
     20 H5         -0.8962    2.4396    3.5878 H         1 <0>         0.0000
     21 H6          0.8210    1.9279    3.6569 H         1 <0>         0.0000
     22 H7          0.0844    2.3860    2.0874 H         1 <0>         0.0000
     23 H8          3.8499   -3.2908   -0.3820 H         1 <0>         0.0000
     24 H9          4.2207   -1.7248   -1.0733 H         1 <0>         0.0000
     25 H10         5.2856   -2.7320    1.6248 H         1 <0>         0.0000
     26 H11         6.2042   -2.6931    0.1373 H         1 <0>         0.0000
     27 H12         6.1492    0.9471    0.1034 H         1 <0>         0.0000
@<TRIPOS>BOND
     1    1    3 ar
     2    1    5 ar
     3    2    4 ar
     4    2    5 ar
     5    3    6 ar
     6    4    6 ar
     7    5    9 1
     8    6   15 1
     9    7   10 1
    10    7   11 2
    11    7   14 1
    12    8   15 1
    13    9   10 1
    14   12   15 2
    15   13   15 2
    16    1   16 1
    17    2   17 1
    18    3   18 1
    19    4   19 1
    20    8   20 1
    21    8   21 1
    22    8   22 1
    23    9   23 1
    24    9   24 1
    25   10   25 1
    26   10   26 1
    27   14   27 1
@<TRIPOS>MOLECULE
*****
   27    27     0     0     0
SMALL
NO_CHARGES

@<TRIPOS>ATOM
      1 C1          1.8851   -1.0363   -0.1124 C.ar      1 <0>         0.0000
      2 C2          2.8783   -1.6520    2.0022 C.ar      1 <0>         0.0000
      3 C3          0.8066   -0.4630    0.5610 C.ar      1 <0>         0.0000
      4 C4          1.7997   -1.0786    2.6757 C.ar      1 <0>         0.0000
      5 C5          2.9210   -1.6309    0.6081 C.ar      1 <0>         0.0000
      6 C6          0.7638   -0.4841    1.9551 C.ar      1 <0>         0.0000
      7 C7          5.7804   -0.7769    1.0166 C.2       1 <0>         0.0000
      8 C8         -1.7603   -1.0894    2.9632 C.3       1 <0>         0.0000
      9 C9          4.0740   -2.2446   -0.1116 C.3       1 <0>         0.0000
     10 C10         5.3895   -2.1944    0.6743 C.3       1 <0>         0.0000
     11 O1          5.9353   -0.3704    2.1611 O.2       1 <0>         0.0000
     12 O2         -0.1350    0.6029    4.1333 O.2       1 <0>         0.0000
     13 O3         -1.1966    1.2405    1.9396 O.2       1 <0>         0.0000
     14 O4          5.9153    0.0119   -0.0778 O.3       1 <0>         0.0000
     15 S1         -0.5850    0.2354    2.7982 S.o2      1 <0>         0.0000
     16 H1          1.9097   -1.0154   -1.1987 H         1 <0>         0.0000
     17 H2          3.6806   -2.1133    2.5719 H         1 <0>         0.0000
     18 H3          0.0045   -0.0029   -0.0100 H         1 <0>         0.0000
     19 H4          1.7763   -1.1011    3.7620 H         1 <0>         0.0000
     20 H5         -2.6382   -0.7077    3.4867 H         1 <0>         0.0000
     21 H6         -2.0311   -1.4358    1.9647 H         1 <0>         0.0000
     22 H7         -1.2943   -1.8939    3.5340 H         1 <0>         0.0000
     23 H8          3.8499   -3.2908   -0.3820 H         1 <0>         0.0000
     24 H9          4.2207   -1.7248   -1.0733 H         1 <0>         0.0000
     25 H10         5.2856   -2.7320    1.6248 H         1 <0>         0.0000
     26 H11         6.2042   -2.6931    0.1373 H         1 <0>         0.0000
     27 H12         6.1492    0.9471    0.1034 H         1 <0>         0.0000
@<TRIPOS>BOND
     1    1    3 ar
     2    1    5 ar
     3    2    4 ar
     4    2    5 ar
     5    3    6 ar
     6    4    6 ar
     7    5    9 1
     8    6   15 1
     9    7   10 1
    10    7   11 2
    11    7   14 1
    12    8   15 1
    13    9   10 1
    14   12   15 2
    15   13   15 2
    16    1   16 1
    17    2   17 1
    18    3   18 1
    19    4   19 1
    20    8   20 1
    21    8   21 1
    22    8   22 1
    23    9   23 1
    24    9   24 1
    25   10   25 1
    26   10   26 1
    27   14   27 1
@<TRIPOS>MOLECULE
*****
   27    27     0     0     0
SMALL
NO_CHARGES

@<TRIPOS>ATOM
      1 C1          1.8851   -1.0363   -0.1124 C.ar      1 <0>         0.0000
      2 C2          2.8783   -1.6520    2.0022 C.ar      1 <0>         0.0000
      3 C3          0.8066   -0.4630    0.5610 C.ar      1 <0>         0.0000
      4 C4          1.7997   -1.0786    2.6757 C.ar      1 <0>         0.0000
      5 C5          2.9210   -1.6309    0.6081 C.ar      1 <0>         0.0000
      6 C6          0.7638   -0.4841    1.9551 C.ar      1 <0>         0.0000
      7 C7          6.2887   -3.4317    0.0448 C.2       1 <0>         0.0000
      8 C8         -1.7603   -1.0894    2.9632 C.3       1 <0>         0.0000
      9 C9          4.0740   -2.2446   -0.1116 C.3       1 <0>         0.0000
     10 C10         5.1276   -2.8564    0.8193 C.3       1 <0>         0.0000
     11 O1          7.2948   -2.7973   -0.2461 O.2       1 <0>         0.0000
     12 O2         -0.1350    0.6029    4.1333 O.2       1 <0>         0.0000
     13 O3         -1.1966    1.2405    1.9396 O.2       1 <0>         0.0000
     14 O4          6.0904   -4.7216   -0.3226 O.3       1 <0>         0.0000
     15 S1         -0.5850    0.2354    2.7982 S.o2      1 <0>         0.0000
     16 H1          1.9097   -1.0154   -1.1987 H         1 <0>         0.0000
     17 H2          3.6806   -2.1133    2.5719 H         1 <0>         0.0000
     18 H3          0.0045   -0.0029   -0.0100 H         1 <0>         0.0000
     19 H4          1.7763   -1.1011    3.7620 H         1 <0>         0.0000
     20 H5         -2.6382   -0.7077    3.4867 H         1 <0>         0.0000
     21 H6         -2.0311   -1.4358    1.9647 H         1 <0>         0.0000
     22 H7         -1.2943   -1.8939    3.5340 H         1 <0>         0.0000
     23 H8          3.7232   -3.0134   -0.8213 H         1 <0>         0.0000
     24 H9          4.5620   -1.4782   -0.7369 H         1 <0>         0.0000
     25 H10         5.5406   -2.0875    1.4838 H         1 <0>         0.0000
     26 H11         4.6960   -3.6188    1.4776 H         1 <0>         0.0000
     27 H12         6.8145   -5.1265   -0.8460 H         1 <0>         0.0000
@<TRIPOS>BOND
     1    1    3 ar
     2    1    5 ar
     3    2    4 ar
     4    2    5 ar
     5    3    6 ar
     6    4    6 ar
     7    5    9 1
     8    6   15 1
     9    7   10 1
    10    7   11 2
    11    7   14 1
    12    8   15 1
    13    9   10 1
    14   12   15 2
    15   13   15 2
    16    1   16 1
    17    2   17 1
    18    3   18 1
    19    4   19 1
    20    8   20 1
    21    8   21 1
    22    8   22 1
    23    9   23 1
    24    9   24 1
    25   10   25 1
    26   10   26 1
    27   14   27 1
@<TRIPOS>MOLECULE
*****
   27    27     0     0     0
SMALL
NO_CHARGES

@<TRIPOS>ATOM
      1 C1          1.8851   -1.0363   -0.1124 C.ar      1 <0>         0.0000
      2 C2          2.8783   -1.6520    2.0022 C.ar      1 <0>         0.0000
      3 C3          0.8066   -0.4630    0.5610 C.ar      1 <0>         0.0000
      4 C4          1.7997   -1.0786    2.6757 C.ar      1 <0>         0.0000
      5 C5          2.9210   -1.6309    0.6081 C.ar      1 <0>         0.0000
      6 C6          0.7638   -0.4841    1.9551 C.ar      1 <0>         0.0000
      7 C7          6.2887   -3.4317    0.0448 C.2       1 <0>         0.0000
      8 C8         -0.0922    1.9242    3.0600 C.3       1 <0>         0.0000
      9 C9          4.0740   -2.2446   -0.1116 C.3       1 <0>         0.0000
     10 C10         5.1276   -2.8564    0.8193 C.3       1 <0>         0.0000
     11 O1          7.2948   -2.7973   -0.2461 O.2       1 <0>         0.0000
     12 O2         -1.7282    0.2375    1.8965 O.2       1 <0>         0.0000
     13 O3         -0.7028   -0.3807    4.1129 O.2       1 <0>         0.0000
     14 O4          6.0904   -4.7216   -0.3226 O.3       1 <0>         0.0000
     15 S1         -0.5850    0.2354    2.7982 S.o2      1 <0>         0.0000
     16 H1          1.9097   -1.0154   -1.1987 H         1 <0>         0.0000
     17 H2          3.6806   -2.1133    2.5719 H         1 <0>         0.0000
     18 H3          0.0045   -0.0029   -0.0100 H         1 <0>         0.0000
     19 H4          1.7763   -1.1011    3.7620 H         1 <0>         0.0000
     20 H5         -0.8962    2.4396    3.5878 H         1 <0>         0.0000
     21 H6          0.8210    1.9279    3.6569 H         1 <0>         0.0000
     22 H7          0.0844    2.3860    2.0874 H         1 <0>         0.0000
     23 H8          3.7232   -3.0134   -0.8213 H         1 <0>         0.0000
     24 H9          4.5620   -1.4782   -0.7369 H         1 <0>         0.0000
     25 H10         5.5406   -2.0875    1.4838 H         1 <0>         0.0000
     26 H11         4.6960   -3.6188    1.4776 H         1 <0>         0.0000
     27 H12         6.8145   -5.1265   -0.8460 H         1 <0>         0.0000
@<TRIPOS>BOND
     1    1    3 ar
     2    1    5 ar
     3    2    4 ar
     4    2    5 ar
     5    3    6 ar
     6    4    6 ar
     7    5    9 1
     8    6   15 1
     9    7   10 1
    10    7   11 2
    11    7   14 1
    12    8   15 1
    13    9   10 1
    14   12   15 2
    15   13   15 2
    16    1   16 1
    17    2   17 1
    18    3   18 1
    19    4   19 1
    20    8   20 1
    21    8   21 1
    22    8   22 1
    23    9   23 1
    24    9   24 1
    25   10   25 1
    26   10   26 1
    27   14   27 1
@<TRIPOS>MOLECULE
*****
   27    27     0     0     0
SMALL
NO_CHARGES

@<TRIPOS>ATOM
      1 C1          1.8851   -1.0363   -0.1124 C.ar      1 <0>         0.0000
      2 C2          2.8783   -1.6520    2.0022 C.ar      1 <0>         0.0000
      3 C3          0.8066   -0.4630    0.5610 C.ar      1 <0>         0.0000
      4 C4          1.7997   -1.0786    2.6757 C.ar      1 <0>         0.0000
      5 C5          2.9210   -1.6309    0.6081 C.ar      1 <0>         0.0000
      6 C6          0.7638   -0.4841    1.9551 C.ar      1 <0>         0.0000
      7 C7          3.7302   -4.5527    0.8334 C.2       1 <0>         0.0000
      8 C8         -1.7603   -1.0894    2.9632 C.3       1 <0>         0.0000
      9 C9          4.0740   -2.2446   -0.1116 C.3       1 <0>         0.0000
     10 C10         4.7112   -3.4226    0.6349 C.3       1 <0>         0.0000
     11 O1          2.5207   -4.3942    0.9401 O.2       1 <0>         0.0000
     12 O2         -0.1350    0.6029    4.1333 O.2       1 <0>         0.0000
     13 O3         -1.1966    1.2405    1.9396 O.2       1 <0>         0.0000
     14 O4          4.3312   -5.7655    0.9104 O.3       1 <0>         0.0000
     15 S1         -0.5850    0.2354    2.7982 S.o2      1 <0>         0.0000
     16 H1          1.9097   -1.0154   -1.1987 H         1 <0>         0.0000
     17 H2          3.6806   -2.1133    2.5719 H         1 <0>         0.0000
     18 H3          0.0045   -0.0029   -0.0100 H         1 <0>         0.0000
     19 H4          1.7763   -1.1011    3.7620 H         1 <0>         0.0000
     20 H5         -2.6382   -0.7077    3.4867 H         1 <0>         0.0000
     21 H6         -2.0311   -1.4358    1.9647 H         1 <0>         0.0000
     22 H7         -1.2943   -1.8939    3.5340 H         1 <0>         0.0000
     23 H8          3.7709   -2.5728   -1.1207 H         1 <0>         0.0000
     24 H9          4.8479   -1.4770   -0.2799 H         1 <0>         0.0000
     25 H10         5.5502   -3.8299    0.0575 H         1 <0>         0.0000
     26 H11         5.1339   -3.1139    1.5977 H         1 <0>         0.0000
     27 H12         3.7290   -6.5253    1.0597 H         1 <0>         0.0000
@<TRIPOS>BOND
     1    1    3 ar
     2    1    5 ar
     3    2    4 ar
     4    2    5 ar
     5    3    6 ar
     6    4    6 ar
     7    5    9 1
     8    6   15 1
     9    7   10 1
    10    7   11 2
    11    7   14 1
    12    8   15 1
    13    9   10 1
    14   12   15 2
    15   13   15 2
    16    1   16 1
    17    2   17 1
    18    3   18 1
    19    4   19 1
    20    8   20 1
    21    8   21 1
    22    8   22 1
    23    9   23 1
    24    9   24 1
    25   10   25 1
    26   10   26 1
    27   14   27 1
@<TRIPOS>MOLECULE
*****
   27    27     0     0     0
SMALL
NO_CHARGES

@<TRIPOS>ATOM
      1 C1          1.8851   -1.0363   -0.1124 C.ar      1 <0>         0.0000
      2 C2          2.8783   -1.6520    2.0022 C.ar      1 <0>         0.0000
      3 C3          0.8066   -0.4630    0.5610 C.ar      1 <0>         0.0000
      4 C4          1.7997   -1.0786    2.6757 C.ar      1 <0>         0.0000
      5 C5          2.9210   -1.6309    0.6081 C.ar      1 <0>         0.0000
      6 C6          0.7638   -0.4841    1.9551 C.ar      1 <0>         0.0000
      7 C7          3.7302   -4.5527    0.8334 C.2       1 <0>         0.0000
      8 C8         -0.0922    1.9242    3.0600 C.3       1 <0>         0.0000
      9 C9          4.0740   -2.2446   -0.1116 C.3       1 <0>         0.0000
     10 C10         4.7112   -3.4226    0.6349 C.3       1 <0>         0.0000
     11 O1          2.5207   -4.3942    0.9401 O.2       1 <0>         0.0000
     12 O2         -1.7282    0.2375    1.8965 O.2       1 <0>         0.0000
     13 O3         -0.7028   -0.3807    4.1129 O.2       1 <0>         0.0000
     14 O4          4.3312   -5.7655    0.9104 O.3       1 <0>         0.0000
     15 S1         -0.5850    0.2354    2.7982 S.o2      1 <0>         0.0000
     16 H1          1.9097   -1.0154   -1.1987 H         1 <0>         0.0000
     17 H2          3.6806   -2.1133    2.5719 H         1 <0>         0.0000
     18 H3          0.0045   -0.0029   -0.0100 H         1 <0>         0.0000
     19 H4          1.7763   -1.1011    3.7620 H         1 <0>         0.0000
     20 H5         -0.8962    2.4396    3.5878 H         1 <0>         0.0000
     21 H6          0.8210    1.9279    3.6569 H         1 <0>         0.0000
     22 H7          0.0844    2.3860    2.0874 H         1 <0>         0.0000
     23 H8          3.7709   -2.5728   -1.1207 H         1 <0>         0.0000
     24 H9          4.8479   -1.4770   -0.2799 H         1 <0>         0.0000
     25 H10         5.5502   -3.8299    0.0575 H         1 <0>         0.0000
     26 H11         5.1339   -3.1139    1.5977 H         1 <0>         0.0000
     27 H12         3.7290   -6.5253    1.0597 H         1 <0>         0.0000
@<TRIPOS>BOND
     1    1    3 ar
     2    1    5 ar
     3    2    4 ar
     4    2    5 ar
     5    3    6 ar
     6    4    6 ar
     7    5    9 1
     8    6   15 1
     9    7   10 1
    10    7   11 2
    11    7   14 1
    12    8   15 1
    13    9   10 1
    14   12   15 2
    15   13   15 2
    16    1   16 1
    17    2   17 1
    18    3   18 1
    19    4   19 1
    20    8   20 1
    21    8   21 1
    22    8   22 1
    23    9   23 1
    24    9   24 1
    25   10   25 1
    26   10   26 1
    27   14   27 1
@<TRIPOS>MOLECULE
*****
   27    27     0     0     0
SMALL
NO_CHARGES

@<TRIPOS>ATOM
      1 C1          1.8851   -1.0363   -0.1124 C.ar      1 <0>         0.0000
      2 C2          2.8783   -1.6520    2.0022 C.ar      1 <0>         0.0000
      3 C3          0.8066   -0.4630    0.5610 C.ar      1 <0>         0.0000
      4 C4          1.7997   -1.0786    2.6757 C.ar      1 <0>         0.0000
      5 C5          2.9210   -1.6309    0.6081 C.ar      1 <0>         0.0000
      6 C6          0.7638   -0.4841    1.9551 C.ar      1 <0>         0.0000
      7 C7          5.7804   -0.7769    1.0166 C.2       1 <0>         0.0000
      8 C8         -0.0922    1.9242    3.0600 C.3       1 <0>         0.0000
      9 C9          4.0740   -2.2446   -0.1116 C.3       1 <0>         0.0000
     10 C10         5.3895   -2.1944    0.6743 C.3       1 <0>         0.0000
     11 O1          4.9743    0.1239    1.2113 O.2       1 <0>         0.0000
     12 O2         -1.7282    0.2375    1.8965 O.2       1 <0>         0.0000
     13 O3         -0.7028   -0.3807    4.1129 O.2       1 <0>         0.0000
     14 O4          7.1233   -0.5956    1.0586 O.3       1 <0>         0.0000
     15 S1         -0.5850    0.2354    2.7982 S.o2      1 <0>         0.0000
     16 H1          1.9097   -1.0154   -1.1987 H         1 <0>         0.0000
     17 H2          3.6806   -2.1133    2.5719 H         1 <0>         0.0000
     18 H3          0.0045   -0.0029   -0.0100 H         1 <0>         0.0000
     19 H4          1.7763   -1.1011    3.7620 H         1 <0>         0.0000
     20 H5         -0.8962    2.4396    3.5878 H         1 <0>         0.0000
     21 H6          0.8210    1.9279    3.6569 H         1 <0>         0.0000
     22 H7          0.0844    2.3860    2.0874 H         1 <0>         0.0000
     23 H8          3.8499   -3.2908   -0.3820 H         1 <0>         0.0000
     24 H9          4.2207   -1.7248   -1.0733 H         1 <0>         0.0000
     25 H10         5.2856   -2.7320    1.6248 H         1 <0>         0.0000
     26 H11         6.2042   -2.6931    0.1373 H         1 <0>         0.0000
     27 H12         7.4188    0.3182    1.2583 H         1 <0>         0.0000
@<TRIPOS>BOND
     1    1    3 ar
     2    1    5 ar
     3    2    4 ar
     4    2    5 ar
     5    3    6 ar
     6    4    6 ar
     7    5    9 1
     8    6   15 1
     9    7   10 1
    10    7   11 2
    11    7   14 1
    12    8   15 1
    13    9   10 1
    14   12   15 2
    15   13   15 2
    16    1   16 1
    17    2   17 1
    18    3   18 1
    19    4   19 1
    20    8   20 1
    21    8   21 1
    22    8   22 1
    23    9   23 1
    24    9   24 1
    25   10   25 1
    26   10   26 1
    27   14   27 1
@<TRIPOS>MOLECULE
*****
   27    27     0     0     0
SMALL
NO_CHARGES

@<TRIPOS>ATOM
      1 C1          1.8851   -1.0363   -0.1124 C.ar      1 <0>         0.0000
      2 C2          2.8783   -1.6520    2.0022 C.ar      1 <0>         0.0000
      3 C3          0.8066   -0.4630    0.5610 C.ar      1 <0>         0.0000
      4 C4          1.7997   -1.0786    2.6757 C.ar      1 <0>         0.0000
      5 C5          2.9210   -1.6309    0.6081 C.ar      1 <0>         0.0000
      6 C6          0.7638   -0.4841    1.9551 C.ar      1 <0>         0.0000
      7 C7          5.7804   -0.7769    1.0166 C.2       1 <0>         0.0000
      8 C8         -1.7603   -1.0894    2.9632 C.3       1 <0>         0.0000
      9 C9          4.0740   -2.2446   -0.1116 C.3       1 <0>         0.0000
     10 C10         5.3895   -2.1944    0.6743 C.3       1 <0>         0.0000
     11 O1          4.9743    0.1239    1.2113 O.2       1 <0>         0.0000
     12 O2         -0.1350    0.6029    4.1333 O.2       1 <0>         0.0000
     13 O3         -1.1966    1.2405    1.9396 O.2       1 <0>         0.0000
     14 O4          7.1233   -0.5956    1.0586 O.3       1 <0>         0.0000
     15 S1         -0.5850    0.2354    2.7982 S.o2      1 <0>         0.0000
     16 H1          1.9097   -1.0154   -1.1987 H         1 <0>         0.0000
     17 H2          3.6806   -2.1133    2.5719 H         1 <0>         0.0000
     18 H3          0.0045   -0.0029   -0.0100 H         1 <0>         0.0000
     19 H4          1.7763   -1.1011    3.7620 H         1 <0>         0.0000
     20 H5         -2.6382   -0.7077    3.4867 H         1 <0>         0.0000
     21 H6         -2.0311   -1.4358    1.9647 H         1 <0>         0.0000
     22 H7         -1.2943   -1.8939    3.5340 H         1 <0>         0.0000
     23 H8          3.8499   -3.2908   -0.3820 H         1 <0>         0.0000
     24 H9          4.2207   -1.7248   -1.0733 H         1 <0>         0.0000
     25 H10         5.2856   -2.7320    1.6248 H         1 <0>         0.0000
     26 H11         6.2042   -2.6931    0.1373 H         1 <0>         0.0000
     27 H12         7.4188    0.3182    1.2583 H         1 <0>         0.0000
@<TRIPOS>BOND
     1    1    3 ar
     2    1    5 ar
     3    2    4 ar
     4    2    5 ar
     5    3    6 ar
     6    4    6 ar
     7    5    9 1
     8    6   15 1
     9    7   10 1
    10    7   11 2
    11    7   14 1
    12    8   15 1
    13    9   10 1
    14   12   15 2
    15   13   15 2
    16    1   16 1
    17    2   17 1
    18    3   18 1
    19    4   19 1
    20    8   20 1
    21    8   21 1
    22    8   22 1
    23    9   23 1
    24    9   24 1
    25   10   25 1
    26   10   26 1
    27   14   27 1
