@<TRIPOS>MOLECULE
*****
   30    31     0     0     0
SMALL
NO_CHARGES

@<TRIPOS>ATOM
      1 C1          2.0640   -0.6096   -0.0196 C.ar      1 <0>         0.0000
      2 C2          0.8013   -0.4764    0.5577 C.ar      1 <0>         0.0000
      3 C3          6.9659   -3.5252    5.8926 C.2       1 <0>         0.0000
      4 C4          5.8439   -2.6994    5.5935 C.2       1 <0>         0.0000
      5 C5          1.6155   -1.5187    2.5795 C.ar      1 <0>         0.0000
      6 C6          3.1026   -1.1975    0.7027 C.ar      1 <0>         0.0000
      7 C7          2.8783   -1.6520    2.0022 C.ar      1 <0>         0.0000
      8 C8          0.5770   -0.9309    1.8572 C.ar      1 <0>         0.0000
      9 C9          6.9482   -4.7015    5.1761 C.2       1 <0>         0.0000
     10 C10         5.0115   -3.2761    4.6594 C.2       1 <0>         0.0000
     11 C11         7.8863   -5.7763    5.1954 C.2       1 <0>         0.0000
     12 C12         4.4445   -1.3293    0.0588 C.3       1 <0>         0.0000
     13 C13         3.7374   -2.7316    4.0811 C.3       1 <0>         0.0000
     14 N1          3.9181   -2.2502    2.7477 N.pl3     1 <0>         0.0000
     15 O1          7.8248   -6.8293    4.5217 O.2       1 <0>         0.0000
     16 O2          8.9352   -5.5728    6.0562 O.3       1 <0>         0.0000
     17 S1          5.5832   -4.8069    4.1476 S.3       1 <0>         0.0000
     18 Cl1        -0.9812   -0.7659    2.5696 Cl        1 <0>         0.0000
     19 H1          2.2282   -0.2528   -1.0331 H         1 <0>         0.0000
     20 H2          0.0017   -0.0159   -0.0167 H         1 <0>         0.0000
     21 H3          7.7441   -3.2651    6.5990 H         1 <0>         0.0000
     22 H4          5.6605   -1.7316    6.0429 H         1 <0>         0.0000
     23 H5          1.4427   -1.8738    3.5933 H         1 <0>         0.0000
     24 H6          5.0518   -0.4401    0.2628 H         1 <0>         0.0000
     25 H7          4.9781   -2.2112    0.4333 H         1 <0>         0.0000
     26 H8          4.3520   -1.4487   -1.0275 H         1 <0>         0.0000
     27 H9          2.9622   -3.5053    4.0582 H         1 <0>         0.0000
     28 H10         3.3532   -1.9040    4.6866 H         1 <0>         0.0000
     29 H11         4.8103   -2.3266    2.2990 H         1 <0>         0.0000
     30 H12         9.5866   -6.3061    6.0762 H         1 <0>         0.0000
@<TRIPOS>BOND
     1    1    2 ar
     2    1    6 ar
     3    2    8 ar
     4    3    4 1
     5    3    9 2
     6    4   10 2
     7    5    7 ar
     8    5    8 ar
     9    6    7 ar
    10    6   12 1
    11    7   14 1
    12    8   18 1
    13    9   11 1
    14    9   17 1
    15   10   13 1
    16   10   17 1
    17   11   15 2
    18   11   16 1
    19   13   14 1
    20    1   19 1
    21    2   20 1
    22    3   21 1
    23    4   22 1
    24    5   23 1
    25   12   24 1
    26   12   25 1
    27   12   26 1
    28   13   27 1
    29   13   28 1
    30   14   29 1
    31   16   30 1
@<TRIPOS>MOLECULE
*****
   30    31     0     0     0
SMALL
NO_CHARGES

@<TRIPOS>ATOM
      1 C1          2.0640   -0.6096   -0.0196 C.ar      1 <0>         0.0000
      2 C2          0.8013   -0.4764    0.5577 C.ar      1 <0>         0.0000
      3 C3          6.8315   -4.6398    5.1392 C.2       1 <0>         0.0000
      4 C4          5.6337   -4.4743    4.3855 C.2       1 <0>         0.0000
      5 C5          1.6155   -1.5187    2.5795 C.ar      1 <0>         0.0000
      6 C6          3.1026   -1.1975    0.7027 C.ar      1 <0>         0.0000
      7 C7          2.8783   -1.6520    2.0022 C.ar      1 <0>         0.0000
      8 C8          0.5770   -0.9309    1.8572 C.ar      1 <0>         0.0000
      9 C9          7.0794   -3.5618    5.9602 C.2       1 <0>         0.0000
     10 C10         5.0115   -3.2761    4.6594 C.2       1 <0>         0.0000
     11 C11         8.1666   -3.3525    6.8600 C.2       1 <0>         0.0000
     12 C12         4.4445   -1.3293    0.0588 C.3       1 <0>         0.0000
     13 C13         3.7374   -2.7316    4.0811 C.3       1 <0>         0.0000
     14 N1          3.9181   -2.2502    2.7477 N.pl3     1 <0>         0.0000
     15 O1          8.3472   -2.3504    7.5878 O.2       1 <0>         0.0000
     16 O2          9.0659   -4.3885    6.8835 O.3       1 <0>         0.0000
     17 S1          5.8708   -2.3567    5.8207 S.3       1 <0>         0.0000
     18 Cl1        -0.9812   -0.7659    2.5696 Cl        1 <0>         0.0000
     19 H1          2.2282   -0.2528   -1.0331 H         1 <0>         0.0000
     20 H2          0.0017   -0.0159   -0.0167 H         1 <0>         0.0000
     21 H3          7.4758   -5.5078    5.0784 H         1 <0>         0.0000
     22 H4          5.2511   -5.2002    3.6792 H         1 <0>         0.0000
     23 H5          1.4427   -1.8738    3.5933 H         1 <0>         0.0000
     24 H6          5.0518   -0.4401    0.2628 H         1 <0>         0.0000
     25 H7          4.9781   -2.2112    0.4333 H         1 <0>         0.0000
     26 H8          4.3520   -1.4487   -1.0275 H         1 <0>         0.0000
     27 H9          2.9622   -3.5053    4.0582 H         1 <0>         0.0000
     28 H10         3.3532   -1.9040    4.6866 H         1 <0>         0.0000
     29 H11         4.8103   -2.3266    2.2990 H         1 <0>         0.0000
     30 H12         9.8171   -4.2546    7.5000 H         1 <0>         0.0000
@<TRIPOS>BOND
     1    1    2 ar
     2    1    6 ar
     3    2    8 ar
     4    3    4 1
     5    3    9 2
     6    4   10 2
     7    5    7 ar
     8    5    8 ar
     9    6    7 ar
    10    6   12 1
    11    7   14 1
    12    8   18 1
    13    9   11 1
    14    9   17 1
    15   10   13 1
    16   10   17 1
    17   11   15 2
    18   11   16 1
    19   13   14 1
    20    1   19 1
    21    2   20 1
    22    3   21 1
    23    4   22 1
    24    5   23 1
    25   12   24 1
    26   12   25 1
    27   12   26 1
    28   13   27 1
    29   13   28 1
    30   14   29 1
    31   16   30 1
@<TRIPOS>MOLECULE
*****
   30    31     0     0     0
SMALL
NO_CHARGES

@<TRIPOS>ATOM
      1 C1          1.9149   -0.9807   -0.1093 C.ar      1 <0>         0.0000
      2 C2          0.8057   -0.4648    0.5608 C.ar      1 <0>         0.0000
      3 C3          6.4939   -5.3017    4.4429 C.2       1 <0>         0.0000
      4 C4          5.5451   -4.5498    3.6914 C.2       1 <0>         0.0000
      5 C5          1.7691   -1.1360    2.6723 C.ar      1 <0>         0.0000
      6 C6          2.9512   -1.5744    0.6114 C.ar      1 <0>         0.0000
      7 C7          2.8783   -1.6520    2.0022 C.ar      1 <0>         0.0000
      8 C8          0.7328   -0.5424    1.9516 C.ar      1 <0>         0.0000
      9 C9          6.4612   -4.9841    5.7829 C.2       1 <0>         0.0000
     10 C10         4.8233   -3.6862    4.4858 C.2       1 <0>         0.0000
     11 C11         7.2481   -5.5141    6.8485 C.2       1 <0>         0.0000
     12 C12         4.1264   -2.1206   -0.1324 C.3       1 <0>         0.0000
     13 C13         3.7374   -2.7316    4.0811 C.3       1 <0>         0.0000
     14 N1          3.9181   -2.2502    2.7477 N.pl3     1 <0>         0.0000
     15 O1          7.1798   -5.1904    8.0556 O.2       1 <0>         0.0000
     16 O2          8.1474   -6.4681    6.4438 O.3       1 <0>         0.0000
     17 S1          5.2903   -3.7839    6.1304 S.3       1 <0>         0.0000
     18 Cl1        -0.6358    0.0948    2.7785 Cl        1 <0>         0.0000
     19 H1          1.9616   -0.9158   -1.1932 H         1 <0>         0.0000
     20 H2          0.0060   -0.0046   -0.0136 H         1 <0>         0.0000
     21 H3          7.1646   -6.0373    4.0173 H         1 <0>         0.0000
     22 H4          5.4023   -4.6410    2.6220 H         1 <0>         0.0000
     23 H5          1.7143   -1.1975    3.7572 H         1 <0>         0.0000
     24 H6          4.8950   -1.3479   -0.2470 H         1 <0>         0.0000
     25 H7          4.5656   -2.9760    0.3949 H         1 <0>         0.0000
     26 H8          3.8343   -2.4745   -1.1286 H         1 <0>         0.0000
     27 H9          2.7569   -3.2171    4.1345 H         1 <0>         0.0000
     28 H10         3.7077   -1.8643    4.7490 H         1 <0>         0.0000
     29 H11         4.8103   -2.3266    2.2990 H         1 <0>         0.0000
     30 H12         8.6929   -6.8396    7.1695 H         1 <0>         0.0000
@<TRIPOS>BOND
     1    1    2 ar
     2    1    6 ar
     3    2    8 ar
     4    3    4 1
     5    3    9 2
     6    4   10 2
     7    5    7 ar
     8    5    8 ar
     9    6    7 ar
    10    6   12 1
    11    7   14 1
    12    8   18 1
    13    9   11 1
    14    9   17 1
    15   10   13 1
    16   10   17 1
    17   11   15 2
    18   11   16 1
    19   13   14 1
    20    1   19 1
    21    2   20 1
    22    3   21 1
    23    4   22 1
    24    5   23 1
    25   12   24 1
    26   12   25 1
    27   12   26 1
    28   13   27 1
    29   13   28 1
    30   14   29 1
    31   16   30 1
@<TRIPOS>MOLECULE
*****
   30    31     0     0     0
SMALL
NO_CHARGES

@<TRIPOS>ATOM
      1 C1          2.1242   -0.2566    0.1798 C.ar      1 <0>         0.0000
      2 C2          0.7997   -0.4873    0.5511 C.ar      1 <0>         0.0000
      3 C3          6.6028   -4.6843    5.6011 C.2       1 <0>         0.0000
      4 C4          5.2679   -4.5482    5.1219 C.2       1 <0>         0.0000
      5 C5          1.5537   -1.8827    2.3736 C.ar      1 <0>         0.0000
      6 C6          3.1636   -0.8390    0.9053 C.ar      1 <0>         0.0000
      7 C7          2.8783   -1.6520    2.0022 C.ar      1 <0>         0.0000
      8 C8          0.5144   -1.3003    1.6480 C.ar      1 <0>         0.0000
      9 C9          7.3159   -3.5113    5.4866 C.2       1 <0>         0.0000
     10 C10         5.0115   -3.2761    4.6594 C.2       1 <0>         0.0000
     11 C11         8.6690   -3.2462    5.8531 C.2       1 <0>         0.0000
     12 C12         4.5729   -0.5764    0.4839 C.3       1 <0>         0.0000
     13 C13         3.7374   -2.7316    4.0811 C.3       1 <0>         0.0000
     14 N1          3.9181   -2.2502    2.7477 N.pl3     1 <0>         0.0000
     15 O1          9.2737   -2.1575    5.7280 O.2       1 <0>         0.0000
     16 O2          9.3141   -4.3315    6.3902 O.3       1 <0>         0.0000
     17 S1          6.3769   -2.2527    4.8036 S.3       1 <0>         0.0000
     18 Cl1        -1.1201   -1.5845    2.1065 Cl        1 <0>         0.0000
     19 H1          2.3358    0.3779   -0.6770 H         1 <0>         0.0000
     20 H2          0.0002   -0.0265   -0.0231 H         1 <0>         0.0000
     21 H3          7.0148   -5.5990    6.0084 H         1 <0>         0.0000
     22 H4          4.5357   -5.3457    5.1185 H         1 <0>         0.0000
     23 H5          1.3334   -2.5171    3.2296 H         1 <0>         0.0000
     24 H6          4.9614    0.3129    0.9931 H         1 <0>         0.0000
     25 H7          5.2221   -1.4278    0.7216 H         1 <0>         0.0000
     26 H8          4.6387   -0.4167   -0.5993 H         1 <0>         0.0000
     27 H9          2.9622   -3.5053    4.0582 H         1 <0>         0.0000
     28 H10         3.3532   -1.9040    4.6866 H         1 <0>         0.0000
     29 H11         4.8103   -2.3266    2.2990 H         1 <0>         0.0000
     30 H12        10.2452   -4.1592    6.6464 H         1 <0>         0.0000
@<TRIPOS>BOND
     1    1    2 ar
     2    1    6 ar
     3    2    8 ar
     4    3    4 1
     5    3    9 2
     6    4   10 2
     7    5    7 ar
     8    5    8 ar
     9    6    7 ar
    10    6   12 1
    11    7   14 1
    12    8   18 1
    13    9   11 1
    14    9   17 1
    15   10   13 1
    16   10   17 1
    17   11   15 2
    18   11   16 1
    19   13   14 1
    20    1   19 1
    21    2   20 1
    22    3   21 1
    23    4   22 1
    24    5   23 1
    25   12   24 1
    26   12   25 1
    27   12   26 1
    28   13   27 1
    29   13   28 1
    30   14   29 1
    31   16   30 1
@<TRIPOS>MOLECULE
*****
   30    31     0     0     0
SMALL
NO_CHARGES

@<TRIPOS>ATOM
      1 C1          2.1242   -0.2566    0.1798 C.ar      1 <0>         0.0000
      2 C2          0.7997   -0.4873    0.5511 C.ar      1 <0>         0.0000
      3 C3          7.1946   -3.4806    5.4306 C.2       1 <0>         0.0000
      4 C4          6.2097   -2.6255    4.8571 C.2       1 <0>         0.0000
      5 C5          1.5537   -1.8827    2.3736 C.ar      1 <0>         0.0000
      6 C6          3.1636   -0.8390    0.9053 C.ar      1 <0>         0.0000
      7 C7          2.8783   -1.6520    2.0022 C.ar      1 <0>         0.0000
      8 C8          0.5144   -1.3003    1.6480 C.ar      1 <0>         0.0000
      9 C9          6.7117   -4.7520    5.6497 C.2       1 <0>         0.0000
     10 C10         5.0115   -3.2761    4.6594 C.2       1 <0>         0.0000
     11 C11         7.3839   -5.8826    6.2024 C.2       1 <0>         0.0000
     12 C12         4.5729   -0.5764    0.4839 C.3       1 <0>         0.0000
     13 C13         3.7374   -2.7316    4.0811 C.3       1 <0>         0.0000
     14 N1          3.9181   -2.2502    2.7477 N.pl3     1 <0>         0.0000
     15 O1          6.8983   -7.0222    6.3815 O.2       1 <0>         0.0000
     16 O2          8.6870   -5.6298    6.5495 O.3       1 <0>         0.0000
     17 S1          5.0771   -4.9109    5.1646 S.3       1 <0>         0.0000
     18 Cl1        -1.1201   -1.5845    2.1065 Cl        1 <0>         0.0000
     19 H1          2.3358    0.3779   -0.6770 H         1 <0>         0.0000
     20 H2          0.0002   -0.0265   -0.0231 H         1 <0>         0.0000
     21 H3          8.2052   -3.1738    5.6690 H         1 <0>         0.0000
     22 H4          6.3760   -1.5862    4.6035 H         1 <0>         0.0000
     23 H5          1.3334   -2.5171    3.2296 H         1 <0>         0.0000
     24 H6          4.9614    0.3129    0.9931 H         1 <0>         0.0000
     25 H7          5.2221   -1.4278    0.7216 H         1 <0>         0.0000
     26 H8          4.6387   -0.4167   -0.5993 H         1 <0>         0.0000
     27 H9          2.9622   -3.5053    4.0582 H         1 <0>         0.0000
     28 H10         3.3532   -1.9040    4.6866 H         1 <0>         0.0000
     29 H11         4.8103   -2.3266    2.2990 H         1 <0>         0.0000
     30 H12         9.1585   -6.4015    6.9298 H         1 <0>         0.0000
@<TRIPOS>BOND
     1    1    2 ar
     2    1    6 ar
     3    2    8 ar
     4    3    4 1
     5    3    9 2
     6    4   10 2
     7    5    7 ar
     8    5    8 ar
     9    6    7 ar
    10    6   12 1
    11    7   14 1
    12    8   18 1
    13    9   11 1
    14    9   17 1
    15   10   13 1
    16   10   17 1
    17   11   15 2
    18   11   16 1
    19   13   14 1
    20    1   19 1
    21    2   20 1
    22    3   21 1
    23    4   22 1
    24    5   23 1
    25   12   24 1
    26   12   25 1
    27   12   26 1
    28   13   27 1
    29   13   28 1
    30   14   29 1
    31   16   30 1
@<TRIPOS>MOLECULE
*****
   30    31     0     0     0
SMALL
NO_CHARGES

@<TRIPOS>ATOM
      1 C1          1.9149   -0.9807   -0.1093 C.ar      1 <0>         0.0000
      2 C2          0.8057   -0.4648    0.5608 C.ar      1 <0>         0.0000
      3 C3          0.8453   -5.1029    4.6698 C.2       1 <0>         0.0000
      4 C4          1.5444   -3.8760    4.8600 C.2       1 <0>         0.0000
      5 C5          1.7691   -1.1360    2.6723 C.ar      1 <0>         0.0000
      6 C6          2.9512   -1.5744    0.6114 C.ar      1 <0>         0.0000
      7 C7          2.8783   -1.6520    2.0022 C.ar      1 <0>         0.0000
      8 C8          0.7328   -0.5424    1.9516 C.ar      1 <0>         0.0000
      9 C9          1.5154   -5.9538    3.8188 C.2       1 <0>         0.0000
     10 C10         2.7226   -3.8361    4.1470 C.2       1 <0>         0.0000
     11 C11         1.1446   -7.2611    3.3840 C.2       1 <0>         0.0000
     12 C12         4.1264   -2.1206   -0.1324 C.3       1 <0>         0.0000
     13 C13         3.7374   -2.7316    4.0811 C.3       1 <0>         0.0000
     14 N1          3.9181   -2.2502    2.7477 N.pl3     1 <0>         0.0000
     15 O1          1.7916   -7.9974    2.6058 O.2       1 <0>         0.0000
     16 O2         -0.0472   -7.6952    3.9073 O.3       1 <0>         0.0000
     17 S1          2.9815   -5.2734    3.2530 S.3       1 <0>         0.0000
     18 Cl1        -0.6358    0.0948    2.7785 Cl        1 <0>         0.0000
     19 H1          1.9616   -0.9158   -1.1932 H         1 <0>         0.0000
     20 H2          0.0060   -0.0046   -0.0136 H         1 <0>         0.0000
     21 H3         -0.1016   -5.3443    5.1360 H         1 <0>         0.0000
     22 H4          1.1972   -3.0661    5.4891 H         1 <0>         0.0000
     23 H5          1.7143   -1.1975    3.7572 H         1 <0>         0.0000
     24 H6          4.8950   -1.3479   -0.2470 H         1 <0>         0.0000
     25 H7          4.5656   -2.9760    0.3949 H         1 <0>         0.0000
     26 H8          3.8343   -2.4745   -1.1286 H         1 <0>         0.0000
     27 H9          3.4292   -1.8863    4.7060 H         1 <0>         0.0000
     28 H10         4.7114   -3.0704    4.4496 H         1 <0>         0.0000
     29 H11         4.8103   -2.3266    2.2990 H         1 <0>         0.0000
     30 H12        -0.3108   -8.5938    3.6150 H         1 <0>         0.0000
@<TRIPOS>BOND
     1    1    2 ar
     2    1    6 ar
     3    2    8 ar
     4    3    4 1
     5    3    9 2
     6    4   10 2
     7    5    7 ar
     8    5    8 ar
     9    6    7 ar
    10    6   12 1
    11    7   14 1
    12    8   18 1
    13    9   11 1
    14    9   17 1
    15   10   13 1
    16   10   17 1
    17   11   15 2
    18   11   16 1
    19   13   14 1
    20    1   19 1
    21    2   20 1
    22    3   21 1
    23    4   22 1
    24    5   23 1
    25   12   24 1
    26   12   25 1
    27   12   26 1
    28   13   27 1
    29   13   28 1
    30   14   29 1
    31   16   30 1
@<TRIPOS>MOLECULE
*****
   30    31     0     0     0
SMALL
NO_CHARGES

@<TRIPOS>ATOM
      1 C1          1.9149   -0.9807   -0.1093 C.ar      1 <0>         0.0000
      2 C2          0.8057   -0.4648    0.5608 C.ar      1 <0>         0.0000
      3 C3          4.7885    0.2208    6.2055 C.2       1 <0>         0.0000
      4 C4          4.8332   -0.5803    5.0280 C.2       1 <0>         0.0000
      5 C5          1.7691   -1.1360    2.6723 C.ar      1 <0>         0.0000
      6 C6          2.9512   -1.5744    0.6114 C.ar      1 <0>         0.0000
      7 C7          2.8783   -1.6520    2.0022 C.ar      1 <0>         0.0000
      8 C8          0.7328   -0.5424    1.9516 C.ar      1 <0>         0.0000
      9 C9          3.9023   -0.2759    7.1358 C.2       1 <0>         0.0000
     10 C10         3.9796   -1.6590    5.1033 C.2       1 <0>         0.0000
     11 C11         3.5785    0.2367    8.4273 C.2       1 <0>         0.0000
     12 C12         4.1264   -2.1206   -0.1324 C.3       1 <0>         0.0000
     13 C13         3.7374   -2.7316    4.0811 C.3       1 <0>         0.0000
     14 N1          3.9181   -2.2502    2.7477 N.pl3     1 <0>         0.0000
     15 O1          2.7620   -0.2542    9.2389 O.2       1 <0>         0.0000
     16 O2          4.2643    1.3801    8.7509 O.3       1 <0>         0.0000
     17 S1          3.1290   -1.7025    6.5889 S.3       1 <0>         0.0000
     18 Cl1        -0.6358    0.0948    2.7785 Cl        1 <0>         0.0000
     19 H1          1.9616   -0.9158   -1.1932 H         1 <0>         0.0000
     20 H2          0.0060   -0.0046   -0.0136 H         1 <0>         0.0000
     21 H3          5.3785    1.1157    6.3576 H         1 <0>         0.0000
     22 H4          5.4615   -0.3723    4.1711 H         1 <0>         0.0000
     23 H5          1.7143   -1.1975    3.7572 H         1 <0>         0.0000
     24 H6          4.8950   -1.3479   -0.2470 H         1 <0>         0.0000
     25 H7          4.5656   -2.9760    0.3949 H         1 <0>         0.0000
     26 H8          3.8343   -2.4745   -1.1286 H         1 <0>         0.0000
     27 H9          4.4244   -3.5714    4.2325 H         1 <0>         0.0000
     28 H10         2.7190   -3.1263    4.1594 H         1 <0>         0.0000
     29 H11         4.8103   -2.3266    2.2990 H         1 <0>         0.0000
     30 H12         4.0493    1.7402    9.6377 H         1 <0>         0.0000
@<TRIPOS>BOND
     1    1    2 ar
     2    1    6 ar
     3    2    8 ar
     4    3    4 1
     5    3    9 2
     6    4   10 2
     7    5    7 ar
     8    5    8 ar
     9    6    7 ar
    10    6   12 1
    11    7   14 1
    12    8   18 1
    13    9   11 1
    14    9   17 1
    15   10   13 1
    16   10   17 1
    17   11   15 2
    18   11   16 1
    19   13   14 1
    20    1   19 1
    21    2   20 1
    22    3   21 1
    23    4   22 1
    24    5   23 1
    25   12   24 1
    26   12   25 1
    27   12   26 1
    28   13   27 1
    29   13   28 1
    30   14   29 1
    31   16   30 1
@<TRIPOS>MOLECULE
*****
   30    31     0     0     0
SMALL
NO_CHARGES

@<TRIPOS>ATOM
      1 C1          1.9149   -0.9807   -0.1093 C.ar      1 <0>         0.0000
      2 C2          0.8057   -0.4648    0.5608 C.ar      1 <0>         0.0000
      3 C3          6.3694   -4.8987    5.7275 C.2       1 <0>         0.0000
      4 C4          5.3411   -3.9125    5.7422 C.2       1 <0>         0.0000
      5 C5          1.7691   -1.1360    2.6723 C.ar      1 <0>         0.0000
      6 C6          2.9512   -1.5744    0.6114 C.ar      1 <0>         0.0000
      7 C7          2.8783   -1.6520    2.0022 C.ar      1 <0>         0.0000
      8 C8          0.7328   -0.5424    1.9516 C.ar      1 <0>         0.0000
      9 C9          6.5982   -5.3888    4.4606 C.2       1 <0>         0.0000
     10 C10         4.8233   -3.6862    4.4858 C.2       1 <0>         0.0000
     11 C11         7.5374   -6.3763    4.0383 C.2       1 <0>         0.0000
     12 C12         4.1264   -2.1206   -0.1324 C.3       1 <0>         0.0000
     13 C13         3.7374   -2.7316    4.0811 C.3       1 <0>         0.0000
     14 N1          3.9181   -2.2502    2.7477 N.pl3     1 <0>         0.0000
     15 O1          7.7072   -6.7891    2.8690 O.2       1 <0>         0.0000
     16 O2          8.2985   -6.8820    5.0618 O.3       1 <0>         0.0000
     17 S1          5.5758   -4.6607    3.2957 S.3       1 <0>         0.0000
     18 Cl1        -0.6358    0.0948    2.7785 Cl        1 <0>         0.0000
     19 H1          1.9616   -0.9158   -1.1932 H         1 <0>         0.0000
     20 H2          0.0060   -0.0046   -0.0136 H         1 <0>         0.0000
     21 H3          6.9110   -5.2289    6.6049 H         1 <0>         0.0000
     22 H4          5.0015   -3.3972    6.6318 H         1 <0>         0.0000
     23 H5          1.7143   -1.1975    3.7572 H         1 <0>         0.0000
     24 H6          4.8950   -1.3479   -0.2470 H         1 <0>         0.0000
     25 H7          4.5656   -2.9760    0.3949 H         1 <0>         0.0000
     26 H8          3.8343   -2.4745   -1.1286 H         1 <0>         0.0000
     27 H9          2.7569   -3.2171    4.1345 H         1 <0>         0.0000
     28 H10         3.7077   -1.8643    4.7490 H         1 <0>         0.0000
     29 H11         4.8103   -2.3266    2.2990 H         1 <0>         0.0000
     30 H12         8.9483   -7.5614    4.7815 H         1 <0>         0.0000
@<TRIPOS>BOND
     1    1    2 ar
     2    1    6 ar
     3    2    8 ar
     4    3    4 1
     5    3    9 2
     6    4   10 2
     7    5    7 ar
     8    5    8 ar
     9    6    7 ar
    10    6   12 1
    11    7   14 1
    12    8   18 1
    13    9   11 1
    14    9   17 1
    15   10   13 1
    16   10   17 1
    17   11   15 2
    18   11   16 1
    19   13   14 1
    20    1   19 1
    21    2   20 1
    22    3   21 1
    23    4   22 1
    24    5   23 1
    25   12   24 1
    26   12   25 1
    27   12   26 1
    28   13   27 1
    29   13   28 1
    30   14   29 1
    31   16   30 1
@<TRIPOS>MOLECULE
*****
   30    31     0     0     0
SMALL
NO_CHARGES

@<TRIPOS>ATOM
      1 C1          1.9149   -0.9807   -0.1093 C.ar      1 <0>         0.0000
      2 C2          0.8057   -0.4648    0.5608 C.ar      1 <0>         0.0000
      3 C3          1.5935   -5.8411    3.8195 C.2       1 <0>         0.0000
      4 C4          2.7421   -5.0571    3.5093 C.2       1 <0>         0.0000
      5 C5          1.7691   -1.1360    2.6723 C.ar      1 <0>         0.0000
      6 C6          2.9512   -1.5744    0.6114 C.ar      1 <0>         0.0000
      7 C7          2.8783   -1.6520    2.0022 C.ar      1 <0>         0.0000
      8 C8          0.7328   -0.5424    1.9516 C.ar      1 <0>         0.0000
      9 C9          0.7400   -5.1898    4.6824 C.2       1 <0>         0.0000
     10 C10         2.7226   -3.8361    4.1470 C.2       1 <0>         0.0000
     11 C11        -0.5024   -5.6382    5.2219 C.2       1 <0>         0.0000
     12 C12         4.1264   -2.1206   -0.1324 C.3       1 <0>         0.0000
     13 C13         3.7374   -2.7316    4.0811 C.3       1 <0>         0.0000
     14 N1          3.9181   -2.2502    2.7477 N.pl3     1 <0>         0.0000
     15 O1         -1.2442   -5.0051    6.0063 O.2       1 <0>         0.0000
     16 O2         -0.8624   -6.8929    4.7994 O.3       1 <0>         0.0000
     17 S1          1.3239   -3.6392    5.1151 S.3       1 <0>         0.0000
     18 Cl1        -0.6358    0.0948    2.7785 Cl        1 <0>         0.0000
     19 H1          1.9616   -0.9158   -1.1932 H         1 <0>         0.0000
     20 H2          0.0060   -0.0046   -0.0136 H         1 <0>         0.0000
     21 H3          1.4073   -6.8328    3.4269 H         1 <0>         0.0000
     22 H4          3.5401   -5.3763    2.8509 H         1 <0>         0.0000
     23 H5          1.7143   -1.1975    3.7572 H         1 <0>         0.0000
     24 H6          4.8950   -1.3479   -0.2470 H         1 <0>         0.0000
     25 H7          4.5656   -2.9760    0.3949 H         1 <0>         0.0000
     26 H8          3.8343   -2.4745   -1.1286 H         1 <0>         0.0000
     27 H9          3.4292   -1.8863    4.7060 H         1 <0>         0.0000
     28 H10         4.7114   -3.0704    4.4496 H         1 <0>         0.0000
     29 H11         4.8103   -2.3266    2.2990 H         1 <0>         0.0000
     30 H12        -1.7160   -7.2102    5.1642 H         1 <0>         0.0000
@<TRIPOS>BOND
     1    1    2 ar
     2    1    6 ar
     3    2    8 ar
     4    3    4 1
     5    3    9 2
     6    4   10 2
     7    5    7 ar
     8    5    8 ar
     9    6    7 ar
    10    6   12 1
    11    7   14 1
    12    8   18 1
    13    9   11 1
    14    9   17 1
    15   10   13 1
    16   10   17 1
    17   11   15 2
    18   11   16 1
    19   13   14 1
    20    1   19 1
    21    2   20 1
    22    3   21 1
    23    4   22 1
    24    5   23 1
    25   12   24 1
    26   12   25 1
    27   12   26 1
    28   13   27 1
    29   13   28 1
    30   14   29 1
    31   16   30 1
@<TRIPOS>MOLECULE
*****
   30    31     0     0     0
SMALL
NO_CHARGES

@<TRIPOS>ATOM
      1 C1          2.0640   -0.6096   -0.0196 C.ar      1 <0>         0.0000
      2 C2          0.8013   -0.4764    0.5577 C.ar      1 <0>         0.0000
      3 C3          2.3505   -6.2033    3.4829 C.2       1 <0>         0.0000
      4 C4          2.9920   -5.0001    3.0694 C.2       1 <0>         0.0000
      5 C5          1.6155   -1.5187    2.5795 C.ar      1 <0>         0.0000
      6 C6          3.1026   -1.1975    0.7027 C.ar      1 <0>         0.0000
      7 C7          2.8783   -1.6520    2.0022 C.ar      1 <0>         0.0000
      8 C8          0.5770   -0.9309    1.8572 C.ar      1 <0>         0.0000
      9 C9          2.0171   -6.1790    4.8193 C.2       1 <0>         0.0000
     10 C10         3.1244   -4.1019    4.1055 C.2       1 <0>         0.0000
     11 C11         1.3692   -7.1827    5.5993 C.2       1 <0>         0.0000
     12 C12         4.4445   -1.3293    0.0588 C.3       1 <0>         0.0000
     13 C13         3.7374   -2.7316    4.0811 C.3       1 <0>         0.0000
     14 N1          3.9181   -2.2502    2.7477 N.pl3     1 <0>         0.0000
     15 O1          1.0873   -7.1118    6.8166 O.2       1 <0>         0.0000
     16 O2          1.0495   -8.3100    4.8855 O.3       1 <0>         0.0000
     17 S1          2.4771   -4.7100    5.5696 S.3       1 <0>         0.0000
     18 Cl1        -0.9812   -0.7659    2.5696 Cl        1 <0>         0.0000
     19 H1          2.2282   -0.2528   -1.0331 H         1 <0>         0.0000
     20 H2          0.0017   -0.0159   -0.0167 H         1 <0>         0.0000
     21 H3          2.1461   -7.0418    2.8292 H         1 <0>         0.0000
     22 H4          3.3372   -4.8072    2.0615 H         1 <0>         0.0000
     23 H5          1.4427   -1.8738    3.5933 H         1 <0>         0.0000
     24 H6          5.0518   -0.4401    0.2628 H         1 <0>         0.0000
     25 H7          4.9781   -2.2112    0.4333 H         1 <0>         0.0000
     26 H8          4.3520   -1.4487   -1.0275 H         1 <0>         0.0000
     27 H9          3.1035   -2.0154    4.6152 H         1 <0>         0.0000
     28 H10         4.7158   -2.7300    4.5731 H         1 <0>         0.0000
     29 H11         4.8103   -2.3266    2.2990 H         1 <0>         0.0000
     30 H12         0.6027   -9.0062    5.4129 H         1 <0>         0.0000
@<TRIPOS>BOND
     1    1    2 ar
     2    1    6 ar
     3    2    8 ar
     4    3    4 1
     5    3    9 2
     6    4   10 2
     7    5    7 ar
     8    5    8 ar
     9    6    7 ar
    10    6   12 1
    11    7   14 1
    12    8   18 1
    13    9   11 1
    14    9   17 1
    15   10   13 1
    16   10   17 1
    17   11   15 2
    18   11   16 1
    19   13   14 1
    20    1   19 1
    21    2   20 1
    22    3   21 1
    23    4   22 1
    24    5   23 1
    25   12   24 1
    26   12   25 1
    27   12   26 1
    28   13   27 1
    29   13   28 1
    30   14   29 1
    31   16   30 1
@<TRIPOS>MOLECULE
*****
   30    31     0     0     0
SMALL
NO_CHARGES

@<TRIPOS>ATOM
      1 C1          2.0640   -0.6096   -0.0196 C.ar      1 <0>         0.0000
      2 C2          0.8013   -0.4764    0.5577 C.ar      1 <0>         0.0000
      3 C3          3.6718   -0.0122    6.7145 C.2       1 <0>         0.0000
      4 C4          3.0546   -0.9569    5.8446 C.2       1 <0>         0.0000
      5 C5          1.6155   -1.5187    2.5795 C.ar      1 <0>         0.0000
      6 C6          3.1026   -1.1975    0.7027 C.ar      1 <0>         0.0000
      7 C7          2.8783   -1.6520    2.0022 C.ar      1 <0>         0.0000
      8 C8          0.5770   -0.9309    1.8572 C.ar      1 <0>         0.0000
      9 C9          5.0449   -0.0283    6.6053 C.2       1 <0>         0.0000
     10 C10         3.9796   -1.6590    5.1033 C.2       1 <0>         0.0000
     11 C11         6.0081    0.7614    7.3011 C.2       1 <0>         0.0000
     12 C12         4.4445   -1.3293    0.0588 C.3       1 <0>         0.0000
     13 C13         3.7374   -2.7316    4.0811 C.3       1 <0>         0.0000
     14 N1          3.9181   -2.2502    2.7477 N.pl3     1 <0>         0.0000
     15 O1          7.2512    0.7084    7.1653 O.2       1 <0>         0.0000
     16 O2          5.4522    1.6461    8.1904 O.3       1 <0>         0.0000
     17 S1          5.5847   -1.1788    5.4576 S.3       1 <0>         0.0000
     18 Cl1        -0.9812   -0.7659    2.5696 Cl        1 <0>         0.0000
     19 H1          2.2282   -0.2528   -1.0331 H         1 <0>         0.0000
     20 H2          0.0017   -0.0159   -0.0167 H         1 <0>         0.0000
     21 H3          3.1314    0.6439    7.3851 H         1 <0>         0.0000
     22 H4          1.9855   -1.1104    5.7691 H         1 <0>         0.0000
     23 H5          1.4427   -1.8738    3.5933 H         1 <0>         0.0000
     24 H6          5.0518   -0.4401    0.2628 H         1 <0>         0.0000
     25 H7          4.9781   -2.2112    0.4333 H         1 <0>         0.0000
     26 H8          4.3520   -1.4487   -1.0275 H         1 <0>         0.0000
     27 H9          4.4244   -3.5714    4.2325 H         1 <0>         0.0000
     28 H10         2.7190   -3.1263    4.1594 H         1 <0>         0.0000
     29 H11         4.8103   -2.3266    2.2990 H         1 <0>         0.0000
     30 H12         6.1064    2.1947    8.6735 H         1 <0>         0.0000
@<TRIPOS>BOND
     1    1    2 ar
     2    1    6 ar
     3    2    8 ar
     4    3    4 1
     5    3    9 2
     6    4   10 2
     7    5    7 ar
     8    5    8 ar
     9    6    7 ar
    10    6   12 1
    11    7   14 1
    12    8   18 1
    13    9   11 1
    14    9   17 1
    15   10   13 1
    16   10   17 1
    17   11   15 2
    18   11   16 1
    19   13   14 1
    20    1   19 1
    21    2   20 1
    22    3   21 1
    23    4   22 1
    24    5   23 1
    25   12   24 1
    26   12   25 1
    27   12   26 1
    28   13   27 1
    29   13   28 1
    30   14   29 1
    31   16   30 1
@<TRIPOS>MOLECULE
*****
   30    31     0     0     0
SMALL
NO_CHARGES

@<TRIPOS>ATOM
      1 C1          2.1242   -0.2566    0.1798 C.ar      1 <0>         0.0000
      2 C2          0.7997   -0.4873    0.5511 C.ar      1 <0>         0.0000
      3 C3          7.2142   -2.4813    5.5587 C.2       1 <0>         0.0000
      4 C4          6.2986   -2.6485    4.4799 C.2       1 <0>         0.0000
      5 C5          1.5537   -1.8827    2.3736 C.ar      1 <0>         0.0000
      6 C6          3.1636   -0.8390    0.9053 C.ar      1 <0>         0.0000
      7 C7          2.8783   -1.6520    2.0022 C.ar      1 <0>         0.0000
      8 C8          0.5144   -1.3003    1.6480 C.ar      1 <0>         0.0000
      9 C9          6.5687   -2.3087    6.7633 C.2       1 <0>         0.0000
     10 C10         4.9879   -2.5975    4.9011 C.2       1 <0>         0.0000
     11 C11         7.1298   -2.1129    8.0603 C.2       1 <0>         0.0000
     12 C12         4.5729   -0.5764    0.4839 C.3       1 <0>         0.0000
     13 C13         3.7374   -2.7316    4.0811 C.3       1 <0>         0.0000
     14 N1          3.9181   -2.2502    2.7477 N.pl3     1 <0>         0.0000
     15 O1          6.4968   -1.9602    9.1292 O.2       1 <0>         0.0000
     16 O2          8.5019   -2.1022    8.0680 O.3       1 <0>         0.0000
     17 S1          4.8654   -2.3487    6.5909 S.3       1 <0>         0.0000
     18 Cl1        -1.1201   -1.5845    2.1065 Cl        1 <0>         0.0000
     19 H1          2.3358    0.3779   -0.6770 H         1 <0>         0.0000
     20 H2          0.0002   -0.0265   -0.0231 H         1 <0>         0.0000
     21 H3          8.2916   -2.4878    5.4514 H         1 <0>         0.0000
     22 H4          6.5908   -2.7985    3.4483 H         1 <0>         0.0000
     23 H5          1.3334   -2.5171    3.2296 H         1 <0>         0.0000
     24 H6          4.9614    0.3129    0.9931 H         1 <0>         0.0000
     25 H7          5.2221   -1.4278    0.7216 H         1 <0>         0.0000
     26 H8          4.6387   -0.4167   -0.5993 H         1 <0>         0.0000
     27 H9          3.4252   -3.7799    4.0218 H         1 <0>         0.0000
     28 H10         2.9109   -2.1710    4.5303 H         1 <0>         0.0000
     29 H11         4.8103   -2.3266    2.2990 H         1 <0>         0.0000
     30 H12         8.8976   -1.9689    8.9557 H         1 <0>         0.0000
@<TRIPOS>BOND
     1    1    2 ar
     2    1    6 ar
     3    2    8 ar
     4    3    4 1
     5    3    9 2
     6    4   10 2
     7    5    7 ar
     8    5    8 ar
     9    6    7 ar
    10    6   12 1
    11    7   14 1
    12    8   18 1
    13    9   11 1
    14    9   17 1
    15   10   13 1
    16   10   17 1
    17   11   15 2
    18   11   16 1
    19   13   14 1
    20    1   19 1
    21    2   20 1
    22    3   21 1
    23    4   22 1
    24    5   23 1
    25   12   24 1
    26   12   25 1
    27   12   26 1
    28   13   27 1
    29   13   28 1
    30   14   29 1
    31   16   30 1
@<TRIPOS>MOLECULE
*****
   30    31     0     0     0
SMALL
NO_CHARGES

@<TRIPOS>ATOM
      1 C1          1.9149   -0.9807   -0.1093 C.ar      1 <0>         0.0000
      2 C2          0.8057   -0.4648    0.5608 C.ar      1 <0>         0.0000
      3 C3          3.8881   -0.3611    7.0294 C.2       1 <0>         0.0000
      4 C4          3.4025   -1.5131    6.3458 C.2       1 <0>         0.0000
      5 C5          1.7691   -1.1360    2.6723 C.ar      1 <0>         0.0000
      6 C6          2.9512   -1.5744    0.6114 C.ar      1 <0>         0.0000
      7 C7          2.8783   -1.6520    2.0022 C.ar      1 <0>         0.0000
      8 C8          0.7328   -0.5424    1.9516 C.ar      1 <0>         0.0000
      9 C9          4.8180    0.3294    6.2837 C.2       1 <0>         0.0000
     10 C10         3.9796   -1.6590    5.1033 C.2       1 <0>         0.0000
     11 C11         5.5268    1.5218    6.6172 C.2       1 <0>         0.0000
     12 C12         4.1264   -2.1206   -0.1324 C.3       1 <0>         0.0000
     13 C13         3.7374   -2.7316    4.0811 C.3       1 <0>         0.0000
     14 N1          3.9181   -2.2502    2.7477 N.pl3     1 <0>         0.0000
     15 O1          6.3660    2.1130    5.9011 O.2       1 <0>         0.0000
     16 O2          5.2113    2.0186    7.8567 O.3       1 <0>         0.0000
     17 S1          5.1022   -0.4107    4.7659 S.3       1 <0>         0.0000
     18 Cl1        -0.6358    0.0948    2.7785 Cl        1 <0>         0.0000
     19 H1          1.9616   -0.9158   -1.1932 H         1 <0>         0.0000
     20 H2          0.0060   -0.0046   -0.0136 H         1 <0>         0.0000
     21 H3          3.5685   -0.0585    8.0186 H         1 <0>         0.0000
     22 H4          2.6666   -2.1975    6.7485 H         1 <0>         0.0000
     23 H5          1.7143   -1.1975    3.7572 H         1 <0>         0.0000
     24 H6          4.8950   -1.3479   -0.2470 H         1 <0>         0.0000
     25 H7          4.5656   -2.9760    0.3949 H         1 <0>         0.0000
     26 H8          3.8343   -2.4745   -1.1286 H         1 <0>         0.0000
     27 H9          4.4244   -3.5714    4.2325 H         1 <0>         0.0000
     28 H10         2.7190   -3.1263    4.1594 H         1 <0>         0.0000
     29 H11         4.8103   -2.3266    2.2990 H         1 <0>         0.0000
     30 H12         5.6929    2.8392    8.0951 H         1 <0>         0.0000
@<TRIPOS>BOND
     1    1    2 ar
     2    1    6 ar
     3    2    8 ar
     4    3    4 1
     5    3    9 2
     6    4   10 2
     7    5    7 ar
     8    5    8 ar
     9    6    7 ar
    10    6   12 1
    11    7   14 1
    12    8   18 1
    13    9   11 1
    14    9   17 1
    15   10   13 1
    16   10   17 1
    17   11   15 2
    18   11   16 1
    19   13   14 1
    20    1   19 1
    21    2   20 1
    22    3   21 1
    23    4   22 1
    24    5   23 1
    25   12   24 1
    26   12   25 1
    27   12   26 1
    28   13   27 1
    29   13   28 1
    30   14   29 1
    31   16   30 1
@<TRIPOS>MOLECULE
*****
   30    31     0     0     0
SMALL
NO_CHARGES

@<TRIPOS>ATOM
      1 C1          1.9149   -0.9807   -0.1093 C.ar      1 <0>         0.0000
      2 C2          0.8057   -0.4648    0.5608 C.ar      1 <0>         0.0000
      3 C3          1.6139   -5.8647    3.9899 C.2       1 <0>         0.0000
      4 C4          1.8141   -4.4589    3.8734 C.2       1 <0>         0.0000
      5 C5          1.7691   -1.1360    2.6723 C.ar      1 <0>         0.0000
      6 C6          2.9512   -1.5744    0.6114 C.ar      1 <0>         0.0000
      7 C7          2.8783   -1.6520    2.0022 C.ar      1 <0>         0.0000
      8 C8          0.7328   -0.5424    1.9516 C.ar      1 <0>         0.0000
      9 C9          2.7786   -6.5288    4.3062 C.2       1 <0>         0.0000
     10 C10         3.1244   -4.1019    4.1055 C.2       1 <0>         0.0000
     11 C11         2.9869   -7.9259    4.5071 C.2       1 <0>         0.0000
     12 C12         4.1264   -2.1206   -0.1324 C.3       1 <0>         0.0000
     13 C13         3.7374   -2.7316    4.0811 C.3       1 <0>         0.0000
     14 N1          3.9181   -2.2502    2.7477 N.pl3     1 <0>         0.0000
     15 O1          4.0705   -8.4824    4.7945 O.2       1 <0>         0.0000
     16 O2          1.8484   -8.6769    4.3572 O.3       1 <0>         0.0000
     17 S1          4.1064   -5.4587    4.4617 S.3       1 <0>         0.0000
     18 Cl1        -0.6358    0.0948    2.7785 Cl        1 <0>         0.0000
     19 H1          1.9616   -0.9158   -1.1932 H         1 <0>         0.0000
     20 H2          0.0060   -0.0046   -0.0136 H         1 <0>         0.0000
     21 H3          0.6615   -6.3595    3.8475 H         1 <0>         0.0000
     22 H4          1.0336   -3.7486    3.6317 H         1 <0>         0.0000
     23 H5          1.7143   -1.1975    3.7572 H         1 <0>         0.0000
     24 H6          4.8950   -1.3479   -0.2470 H         1 <0>         0.0000
     25 H7          4.5656   -2.9760    0.3949 H         1 <0>         0.0000
     26 H8          3.8343   -2.4745   -1.1286 H         1 <0>         0.0000
     27 H9          3.1035   -2.0154    4.6152 H         1 <0>         0.0000
     28 H10         4.7158   -2.7300    4.5731 H         1 <0>         0.0000
     29 H11         4.8103   -2.3266    2.2990 H         1 <0>         0.0000
     30 H12         1.9810   -9.6392    4.4942 H         1 <0>         0.0000
@<TRIPOS>BOND
     1    1    2 ar
     2    1    6 ar
     3    2    8 ar
     4    3    4 1
     5    3    9 2
     6    4   10 2
     7    5    7 ar
     8    5    8 ar
     9    6    7 ar
    10    6   12 1
    11    7   14 1
    12    8   18 1
    13    9   11 1
    14    9   17 1
    15   10   13 1
    16   10   17 1
    17   11   15 2
    18   11   16 1
    19   13   14 1
    20    1   19 1
    21    2   20 1
    22    3   21 1
    23    4   22 1
    24    5   23 1
    25   12   24 1
    26   12   25 1
    27   12   26 1
    28   13   27 1
    29   13   28 1
    30   14   29 1
    31   16   30 1
@<TRIPOS>MOLECULE
*****
   30    31     0     0     0
SMALL
NO_CHARGES

@<TRIPOS>ATOM
      1 C1          2.1242   -0.2566    0.1798 C.ar      1 <0>         0.0000
      2 C2          0.7997   -0.4873    0.5511 C.ar      1 <0>         0.0000
      3 C3          6.7148   -4.6174    5.4643 C.2       1 <0>         0.0000
      4 C4          5.8928   -3.4620    5.3248 C.2       1 <0>         0.0000
      5 C5          1.5537   -1.8827    2.3736 C.ar      1 <0>         0.0000
      6 C6          3.1636   -0.8390    0.9053 C.ar      1 <0>         0.0000
      7 C7          2.8783   -1.6520    2.0022 C.ar      1 <0>         0.0000
      8 C8          0.5144   -1.3003    1.6480 C.ar      1 <0>         0.0000
      9 C9          6.2423   -5.6807    4.7270 C.2       1 <0>         0.0000
     10 C10         4.8233   -3.6862    4.4858 C.2       1 <0>         0.0000
     11 C11         6.7811   -6.9962    4.6053 C.2       1 <0>         0.0000
     12 C12         4.5729   -0.5764    0.4839 C.3       1 <0>         0.0000
     13 C13         3.7374   -2.7316    4.0811 C.3       1 <0>         0.0000
     14 N1          3.9181   -2.2502    2.7477 N.pl3     1 <0>         0.0000
     15 O1          6.3117   -7.9315    3.9188 O.2       1 <0>         0.0000
     16 O2          7.9263   -7.1891    5.3360 O.3       1 <0>         0.0000
     17 S1          4.8132   -5.2843    3.8709 S.3       1 <0>         0.0000
     18 Cl1        -1.1201   -1.5845    2.1065 Cl        1 <0>         0.0000
     19 H1          2.3358    0.3779   -0.6770 H         1 <0>         0.0000
     20 H2          0.0002   -0.0265   -0.0231 H         1 <0>         0.0000
     21 H3          7.6069   -4.6615    6.0763 H         1 <0>         0.0000
     22 H4          6.0801   -2.5159    5.8166 H         1 <0>         0.0000
     23 H5          1.3334   -2.5171    3.2296 H         1 <0>         0.0000
     24 H6          4.9614    0.3129    0.9931 H         1 <0>         0.0000
     25 H7          5.2221   -1.4278    0.7216 H         1 <0>         0.0000
     26 H8          4.6387   -0.4167   -0.5993 H         1 <0>         0.0000
     27 H9          2.7569   -3.2171    4.1345 H         1 <0>         0.0000
     28 H10         3.7077   -1.8643    4.7490 H         1 <0>         0.0000
     29 H11         4.8103   -2.3266    2.2990 H         1 <0>         0.0000
     30 H12         8.3053   -8.0906    5.2584 H         1 <0>         0.0000
@<TRIPOS>BOND
     1    1    2 ar
     2    1    6 ar
     3    2    8 ar
     4    3    4 1
     5    3    9 2
     6    4   10 2
     7    5    7 ar
     8    5    8 ar
     9    6    7 ar
    10    6   12 1
    11    7   14 1
    12    8   18 1
    13    9   11 1
    14    9   17 1
    15   10   13 1
    16   10   17 1
    17   11   15 2
    18   11   16 1
    19   13   14 1
    20    1   19 1
    21    2   20 1
    22    3   21 1
    23    4   22 1
    24    5   23 1
    25   12   24 1
    26   12   25 1
    27   12   26 1
    28   13   27 1
    29   13   28 1
    30   14   29 1
    31   16   30 1
@<TRIPOS>MOLECULE
*****
   30    31     0     0     0
SMALL
NO_CHARGES

@<TRIPOS>ATOM
      1 C1          2.1242   -0.2566    0.1798 C.ar      1 <0>         0.0000
      2 C2          0.7997   -0.4873    0.5511 C.ar      1 <0>         0.0000
      3 C3          6.8449   -3.0672    6.2178 C.2       1 <0>         0.0000
      4 C4          5.7115   -3.5877    5.5287 C.2       1 <0>         0.0000
      5 C5          1.5537   -1.8827    2.3736 C.ar      1 <0>         0.0000
      6 C6          3.1636   -0.8390    0.9053 C.ar      1 <0>         0.0000
      7 C7          2.8783   -1.6520    2.0022 C.ar      1 <0>         0.0000
      8 C8          0.5144   -1.3003    1.6480 C.ar      1 <0>         0.0000
      9 C9          6.9445   -1.6992    6.0904 C.2       1 <0>         0.0000
     10 C10         4.9879   -2.5975    4.9011 C.2       1 <0>         0.0000
     11 C11         7.9296   -0.8188    6.6292 C.2       1 <0>         0.0000
     12 C12         4.5729   -0.5764    0.4839 C.3       1 <0>         0.0000
     13 C13         3.7374   -2.7316    4.0811 C.3       1 <0>         0.0000
     14 N1          3.9181   -2.2502    2.7477 N.pl3     1 <0>         0.0000
     15 O1          7.7591    0.3774    6.9555 O.2       1 <0>         0.0000
     16 O2          9.1621   -1.4024    6.7806 O.3       1 <0>         0.0000
     17 S1          5.6751   -1.0479    5.1435 S.3       1 <0>         0.0000
     18 Cl1        -1.1201   -1.5845    2.1065 Cl        1 <0>         0.0000
     19 H1          2.3358    0.3779   -0.6770 H         1 <0>         0.0000
     20 H2          0.0002   -0.0265   -0.0231 H         1 <0>         0.0000
     21 H3          7.5490   -3.6701    6.7772 H         1 <0>         0.0000
     22 H4          5.4439   -4.6363    5.4977 H         1 <0>         0.0000
     23 H5          1.3334   -2.5171    3.2296 H         1 <0>         0.0000
     24 H6          4.9614    0.3129    0.9931 H         1 <0>         0.0000
     25 H7          5.2221   -1.4278    0.7216 H         1 <0>         0.0000
     26 H8          4.6387   -0.4167   -0.5993 H         1 <0>         0.0000
     27 H9          3.4252   -3.7799    4.0218 H         1 <0>         0.0000
     28 H10         2.9109   -2.1710    4.5303 H         1 <0>         0.0000
     29 H11         4.8103   -2.3266    2.2990 H         1 <0>         0.0000
     30 H12         9.8465   -0.8052    7.1514 H         1 <0>         0.0000
@<TRIPOS>BOND
     1    1    2 ar
     2    1    6 ar
     3    2    8 ar
     4    3    4 1
     5    3    9 2
     6    4   10 2
     7    5    7 ar
     8    5    8 ar
     9    6    7 ar
    10    6   12 1
    11    7   14 1
    12    8   18 1
    13    9   11 1
    14    9   17 1
    15   10   13 1
    16   10   17 1
    17   11   15 2
    18   11   16 1
    19   13   14 1
    20    1   19 1
    21    2   20 1
    22    3   21 1
    23    4   22 1
    24    5   23 1
    25   12   24 1
    26   12   25 1
    27   12   26 1
    28   13   27 1
    29   13   28 1
    30   14   29 1
    31   16   30 1
@<TRIPOS>MOLECULE
*****
   30    31     0     0     0
SMALL
NO_CHARGES

@<TRIPOS>ATOM
      1 C1          2.1242   -0.2566    0.1798 C.ar      1 <0>         0.0000
      2 C2          0.7997   -0.4873    0.5511 C.ar      1 <0>         0.0000
      3 C3          6.8354   -1.7306    6.0137 C.2       1 <0>         0.0000
      4 C4          5.6919   -1.4542    5.2098 C.2       1 <0>         0.0000
      5 C5          1.5537   -1.8827    2.3736 C.ar      1 <0>         0.0000
      6 C6          3.1636   -0.8390    0.9053 C.ar      1 <0>         0.0000
      7 C7          2.8783   -1.6520    2.0022 C.ar      1 <0>         0.0000
      8 C8          0.5144   -1.3003    1.6480 C.ar      1 <0>         0.0000
      9 C9          6.9616   -3.0744    6.2892 C.2       1 <0>         0.0000
     10 C10         4.9879   -2.5975    4.9011 C.2       1 <0>         0.0000
     11 C11         7.9644   -3.7416    7.0540 C.2       1 <0>         0.0000
     12 C12         4.5729   -0.5764    0.4839 C.3       1 <0>         0.0000
     13 C13         3.7374   -2.7316    4.0811 C.3       1 <0>         0.0000
     14 N1          3.9181   -2.2502    2.7477 N.pl3     1 <0>         0.0000
     15 O1          8.3732   -4.9123    6.8839 O.2       1 <0>         0.0000
     16 O2          8.4929   -2.9693    8.0574 O.3       1 <0>         0.0000
     17 S1          5.7051   -3.9965    5.5798 S.3       1 <0>         0.0000
     18 Cl1        -1.1201   -1.5845    2.1065 Cl        1 <0>         0.0000
     19 H1          2.3358    0.3779   -0.6770 H         1 <0>         0.0000
     20 H2          0.0002   -0.0265   -0.0231 H         1 <0>         0.0000
     21 H3          7.5274   -0.9780    6.3699 H         1 <0>         0.0000
     22 H4          5.4040   -0.4652    4.8765 H         1 <0>         0.0000
     23 H5          1.3334   -2.5171    3.2296 H         1 <0>         0.0000
     24 H6          4.9614    0.3129    0.9931 H         1 <0>         0.0000
     25 H7          5.2221   -1.4278    0.7216 H         1 <0>         0.0000
     26 H8          4.6387   -0.4167   -0.5993 H         1 <0>         0.0000
     27 H9          3.4252   -3.7799    4.0218 H         1 <0>         0.0000
     28 H10         2.9109   -2.1710    4.5303 H         1 <0>         0.0000
     29 H11         4.8103   -2.3266    2.2990 H         1 <0>         0.0000
     30 H12         9.1842   -3.4189    8.5887 H         1 <0>         0.0000
@<TRIPOS>BOND
     1    1    2 ar
     2    1    6 ar
     3    2    8 ar
     4    3    4 1
     5    3    9 2
     6    4   10 2
     7    5    7 ar
     8    5    8 ar
     9    6    7 ar
    10    6   12 1
    11    7   14 1
    12    8   18 1
    13    9   11 1
    14    9   17 1
    15   10   13 1
    16   10   17 1
    17   11   15 2
    18   11   16 1
    19   13   14 1
    20    1   19 1
    21    2   20 1
    22    3   21 1
    23    4   22 1
    24    5   23 1
    25   12   24 1
    26   12   25 1
    27   12   26 1
    28   13   27 1
    29   13   28 1
    30   14   29 1
    31   16   30 1
@<TRIPOS>MOLECULE
*****
   30    31     0     0     0
SMALL
NO_CHARGES

@<TRIPOS>ATOM
      1 C1          2.1242   -0.2566    0.1798 C.ar      1 <0>         0.0000
      2 C2          0.7997   -0.4873    0.5511 C.ar      1 <0>         0.0000
      3 C3          6.4660   -2.3166    6.6728 C.2       1 <0>         0.0000
      4 C4          5.1049   -2.3935    6.2586 C.2       1 <0>         0.0000
      5 C5          1.5537   -1.8827    2.3736 C.ar      1 <0>         0.0000
      6 C6          3.1636   -0.8390    0.9053 C.ar      1 <0>         0.0000
      7 C7          2.8783   -1.6520    2.0022 C.ar      1 <0>         0.0000
      8 C8          0.5144   -1.3003    1.6480 C.ar      1 <0>         0.0000
      9 C9          7.3375   -2.4649    5.6164 C.2       1 <0>         0.0000
     10 C10         4.9879   -2.5975    4.9011 C.2       1 <0>         0.0000
     11 C11         8.7641   -2.4476    5.6228 C.2       1 <0>         0.0000
     12 C12         4.5729   -0.5764    0.4839 C.3       1 <0>         0.0000
     13 C13         3.7374   -2.7316    4.0811 C.3       1 <0>         0.0000
     14 N1          3.9181   -2.2502    2.7477 N.pl3     1 <0>         0.0000
     15 O1          9.5140   -2.5877    4.6306 O.2       1 <0>         0.0000
     16 O2          9.3042   -2.2533    6.8691 O.3       1 <0>         0.0000
     17 S1          6.5149   -2.6957    4.1323 S.3       1 <0>         0.0000
     18 Cl1        -1.1201   -1.5845    2.1065 Cl        1 <0>         0.0000
     19 H1          2.3358    0.3779   -0.6770 H         1 <0>         0.0000
     20 H2          0.0002   -0.0265   -0.0231 H         1 <0>         0.0000
     21 H3          6.7848   -2.1604    7.6956 H         1 <0>         0.0000
     22 H4          4.2572   -2.3030    6.9259 H         1 <0>         0.0000
     23 H5          1.3334   -2.5171    3.2296 H         1 <0>         0.0000
     24 H6          4.9614    0.3129    0.9931 H         1 <0>         0.0000
     25 H7          5.2221   -1.4278    0.7216 H         1 <0>         0.0000
     26 H8          4.6387   -0.4167   -0.5993 H         1 <0>         0.0000
     27 H9          3.4252   -3.7799    4.0218 H         1 <0>         0.0000
     28 H10         2.9109   -2.1710    4.5303 H         1 <0>         0.0000
     29 H11         4.8103   -2.3266    2.2990 H         1 <0>         0.0000
     30 H12        10.2850   -2.2389    6.8841 H         1 <0>         0.0000
@<TRIPOS>BOND
     1    1    2 ar
     2    1    6 ar
     3    2    8 ar
     4    3    4 1
     5    3    9 2
     6    4   10 2
     7    5    7 ar
     8    5    8 ar
     9    6    7 ar
    10    6   12 1
    11    7   14 1
    12    8   18 1
    13    9   11 1
    14    9   17 1
    15   10   13 1
    16   10   17 1
    17   11   15 2
    18   11   16 1
    19   13   14 1
    20    1   19 1
    21    2   20 1
    22    3   21 1
    23    4   22 1
    24    5   23 1
    25   12   24 1
    26   12   25 1
    27   12   26 1
    28   13   27 1
    29   13   28 1
    30   14   29 1
    31   16   30 1
@<TRIPOS>MOLECULE
*****
   30    31     0     0     0
SMALL
NO_CHARGES

@<TRIPOS>ATOM
      1 C1          1.9149   -0.9807   -0.1093 C.ar      1 <0>         0.0000
      2 C2          0.8057   -0.4648    0.5608 C.ar      1 <0>         0.0000
      3 C3          4.3085    0.3993    6.1319 C.2       1 <0>         0.0000
      4 C4          4.0663   -0.2973    4.9127 C.2       1 <0>         0.0000
      5 C5          1.7691   -1.1360    2.6723 C.ar      1 <0>         0.0000
      6 C6          2.9512   -1.5744    0.6114 C.ar      1 <0>         0.0000
      7 C7          2.8783   -1.6520    2.0022 C.ar      1 <0>         0.0000
      8 C8          0.7328   -0.5424    1.9516 C.ar      1 <0>         0.0000
      9 C9          4.3974   -0.4563    7.2078 C.2       1 <0>         0.0000
     10 C10         3.9796   -1.6590    5.1033 C.2       1 <0>         0.0000
     11 C11         4.6304   -0.1473    8.5811 C.2       1 <0>         0.0000
     12 C12         4.1264   -2.1206   -0.1324 C.3       1 <0>         0.0000
     13 C13         3.7374   -2.7316    4.0811 C.3       1 <0>         0.0000
     14 N1          3.9181   -2.2502    2.7477 N.pl3     1 <0>         0.0000
     15 O1          4.7027   -0.9655    9.5255 O.2       1 <0>         0.0000
     16 O2          4.7826    1.1947    8.8227 O.3       1 <0>         0.0000
     17 S1          4.1894   -2.0923    6.7466 S.3       1 <0>         0.0000
     18 Cl1        -0.6358    0.0948    2.7785 Cl        1 <0>         0.0000
     19 H1          1.9616   -0.9158   -1.1932 H         1 <0>         0.0000
     20 H2          0.0060   -0.0046   -0.0136 H         1 <0>         0.0000
     21 H3          4.4112    1.4742    6.2106 H         1 <0>         0.0000
     22 H4          3.9619    0.1802    3.9467 H         1 <0>         0.0000
     23 H5          1.7143   -1.1975    3.7572 H         1 <0>         0.0000
     24 H6          4.8950   -1.3479   -0.2470 H         1 <0>         0.0000
     25 H7          4.5656   -2.9760    0.3949 H         1 <0>         0.0000
     26 H8          3.8343   -2.4745   -1.1286 H         1 <0>         0.0000
     27 H9          4.4244   -3.5714    4.2325 H         1 <0>         0.0000
     28 H10         2.7190   -3.1263    4.1594 H         1 <0>         0.0000
     29 H11         4.8103   -2.3266    2.2990 H         1 <0>         0.0000
     30 H12         4.9442    1.4176    9.7643 H         1 <0>         0.0000
@<TRIPOS>BOND
     1    1    2 ar
     2    1    6 ar
     3    2    8 ar
     4    3    4 1
     5    3    9 2
     6    4   10 2
     7    5    7 ar
     8    5    8 ar
     9    6    7 ar
    10    6   12 1
    11    7   14 1
    12    8   18 1
    13    9   11 1
    14    9   17 1
    15   10   13 1
    16   10   17 1
    17   11   15 2
    18   11   16 1
    19   13   14 1
    20    1   19 1
    21    2   20 1
    22    3   21 1
    23    4   22 1
    24    5   23 1
    25   12   24 1
    26   12   25 1
    27   12   26 1
    28   13   27 1
    29   13   28 1
    30   14   29 1
    31   16   30 1
@<TRIPOS>MOLECULE
*****
   30    31     0     0     0
SMALL
NO_CHARGES

@<TRIPOS>ATOM
      1 C1          2.0640   -0.6096   -0.0196 C.ar      1 <0>         0.0000
      2 C2          0.8013   -0.4764    0.5577 C.ar      1 <0>         0.0000
      3 C3          5.0048   -0.1282    6.5204 C.2       1 <0>         0.0000
      4 C4          5.1811   -1.1364    5.5292 C.2       1 <0>         0.0000
      5 C5          1.6155   -1.5187    2.5795 C.ar      1 <0>         0.0000
      6 C6          3.1026   -1.1975    0.7027 C.ar      1 <0>         0.0000
      7 C7          2.8783   -1.6520    2.0022 C.ar      1 <0>         0.0000
      8 C8          0.5770   -0.9309    1.8572 C.ar      1 <0>         0.0000
      9 C9          3.6755    0.0817    6.8143 C.2       1 <0>         0.0000
     10 C10         3.9796   -1.6590    5.1033 C.2       1 <0>         0.0000
     11 C11         3.0972    0.9971    7.7434 C.2       1 <0>         0.0000
     12 C12         4.4445   -1.3293    0.0588 C.3       1 <0>         0.0000
     13 C13         3.7374   -2.7316    4.0811 C.3       1 <0>         0.0000
     14 N1          3.9181   -2.2502    2.7477 N.pl3     1 <0>         0.0000
     15 O1          1.8768    1.1503    7.9748 O.2       1 <0>         0.0000
     16 O2          4.0235    1.7526    8.4172 O.3       1 <0>         0.0000
     17 S1          2.6465   -0.9344    5.8972 S.3       1 <0>         0.0000
     18 Cl1        -0.9812   -0.7659    2.5696 Cl        1 <0>         0.0000
     19 H1          2.2282   -0.2528   -1.0331 H         1 <0>         0.0000
     20 H2          0.0017   -0.0159   -0.0167 H         1 <0>         0.0000
     21 H3          5.8156    0.4133    6.9911 H         1 <0>         0.0000
     22 H4          6.1426   -1.4594    5.1505 H         1 <0>         0.0000
     23 H5          1.4427   -1.8738    3.5933 H         1 <0>         0.0000
     24 H6          5.0518   -0.4401    0.2628 H         1 <0>         0.0000
     25 H7          4.9781   -2.2112    0.4333 H         1 <0>         0.0000
     26 H8          4.3520   -1.4487   -1.0275 H         1 <0>         0.0000
     27 H9          4.4244   -3.5714    4.2325 H         1 <0>         0.0000
     28 H10         2.7190   -3.1263    4.1594 H         1 <0>         0.0000
     29 H11         4.8103   -2.3266    2.2990 H         1 <0>         0.0000
     30 H12         3.6358    2.3848    9.0593 H         1 <0>         0.0000
@<TRIPOS>BOND
     1    1    2 ar
     2    1    6 ar
     3    2    8 ar
     4    3    4 1
     5    3    9 2
     6    4   10 2
     7    5    7 ar
     8    5    8 ar
     9    6    7 ar
    10    6   12 1
    11    7   14 1
    12    8   18 1
    13    9   11 1
    14    9   17 1
    15   10   13 1
    16   10   17 1
    17   11   15 2
    18   11   16 1
    19   13   14 1
    20    1   19 1
    21    2   20 1
    22    3   21 1
    23    4   22 1
    24    5   23 1
    25   12   24 1
    26   12   25 1
    27   12   26 1
    28   13   27 1
    29   13   28 1
    30   14   29 1
    31   16   30 1
@<TRIPOS>MOLECULE
*****
   30    31     0     0     0
SMALL
NO_CHARGES

@<TRIPOS>ATOM
      1 C1          1.9149   -0.9807   -0.1093 C.ar      1 <0>         0.0000
      2 C2          0.8057   -0.4648    0.5608 C.ar      1 <0>         0.0000
      3 C3          2.8186   -6.3983    4.2934 C.2       1 <0>         0.0000
      4 C4          3.7347   -5.3093    4.3654 C.2       1 <0>         0.0000
      5 C5          1.7691   -1.1360    2.6723 C.ar      1 <0>         0.0000
      6 C6          2.9512   -1.5744    0.6114 C.ar      1 <0>         0.0000
      7 C7          2.8783   -1.6520    2.0022 C.ar      1 <0>         0.0000
      8 C8          0.7328   -0.5424    1.9516 C.ar      1 <0>         0.0000
      9 C9          1.5432   -5.9818    3.9814 C.2       1 <0>         0.0000
     10 C10         3.1244   -4.1019    4.1055 C.2       1 <0>         0.0000
     11 C11         0.3603   -6.7630    3.8194 C.2       1 <0>         0.0000
     12 C12         4.1264   -2.1206   -0.1324 C.3       1 <0>         0.0000
     13 C13         3.7374   -2.7316    4.0811 C.3       1 <0>         0.0000
     14 N1          3.9181   -2.2502    2.7477 N.pl3     1 <0>         0.0000
     15 O1         -0.7805   -6.3345    3.5342 O.2       1 <0>         0.0000
     16 O2          0.5614   -8.1073    4.0065 O.3       1 <0>         0.0000
     17 S1          1.4537   -4.2841    3.7767 S.3       1 <0>         0.0000
     18 Cl1        -0.6358    0.0948    2.7785 Cl        1 <0>         0.0000
     19 H1          1.9616   -0.9158   -1.1932 H         1 <0>         0.0000
     20 H2          0.0060   -0.0046   -0.0136 H         1 <0>         0.0000
     21 H3          3.0866   -7.4335    4.4629 H         1 <0>         0.0000
     22 H4          4.7875   -5.4109    4.5963 H         1 <0>         0.0000
     23 H5          1.7143   -1.1975    3.7572 H         1 <0>         0.0000
     24 H6          4.8950   -1.3479   -0.2470 H         1 <0>         0.0000
     25 H7          4.5656   -2.9760    0.3949 H         1 <0>         0.0000
     26 H8          3.8343   -2.4745   -1.1286 H         1 <0>         0.0000
     27 H9          3.1035   -2.0154    4.6152 H         1 <0>         0.0000
     28 H10         4.7158   -2.7300    4.5731 H         1 <0>         0.0000
     29 H11         4.8103   -2.3266    2.2990 H         1 <0>         0.0000
     30 H12        -0.2461   -8.6534    3.8964 H         1 <0>         0.0000
@<TRIPOS>BOND
     1    1    2 ar
     2    1    6 ar
     3    2    8 ar
     4    3    4 1
     5    3    9 2
     6    4   10 2
     7    5    7 ar
     8    5    8 ar
     9    6    7 ar
    10    6   12 1
    11    7   14 1
    12    8   18 1
    13    9   11 1
    14    9   17 1
    15   10   13 1
    16   10   17 1
    17   11   15 2
    18   11   16 1
    19   13   14 1
    20    1   19 1
    21    2   20 1
    22    3   21 1
    23    4   22 1
    24    5   23 1
    25   12   24 1
    26   12   25 1
    27   12   26 1
    28   13   27 1
    29   13   28 1
    30   14   29 1
    31   16   30 1
@<TRIPOS>MOLECULE
*****
   30    31     0     0     0
SMALL
NO_CHARGES

@<TRIPOS>ATOM
      1 C1          2.1242   -0.2566    0.1798 C.ar      1 <0>         0.0000
      2 C2          0.7997   -0.4873    0.5511 C.ar      1 <0>         0.0000
      3 C3          2.8981    0.4113    6.0181 C.2       1 <0>         0.0000
      4 C4          3.5230   -0.2983    4.9522 C.2       1 <0>         0.0000
      5 C5          1.5537   -1.8827    2.3736 C.ar      1 <0>         0.0000
      6 C6          3.1636   -0.8390    0.9053 C.ar      1 <0>         0.0000
      7 C7          2.8783   -1.6520    2.0022 C.ar      1 <0>         0.0000
      8 C8          0.5144   -1.3003    1.6480 C.ar      1 <0>         0.0000
      9 C9          2.1862   -0.4252    6.8494 C.2       1 <0>         0.0000
     10 C10         3.2651   -1.6504    5.0096 C.2       1 <0>         0.0000
     11 C11         1.4309   -0.0992    8.0150 C.2       1 <0>         0.0000
     12 C12         4.5729   -0.5764    0.4839 C.3       1 <0>         0.0000
     13 C13         3.7374   -2.7316    4.0811 C.3       1 <0>         0.0000
     14 N1          3.9181   -2.2502    2.7477 N.pl3     1 <0>         0.0000
     15 O1          1.2408   -0.8366    9.0083 O.2       1 <0>         0.0000
     16 O2          0.8876    1.1603    7.9815 O.3       1 <0>         0.0000
     17 S1          2.2730   -2.0591    6.3442 S.3       1 <0>         0.0000
     18 Cl1        -1.1201   -1.5845    2.1065 Cl        1 <0>         0.0000
     19 H1          2.3358    0.3779   -0.6770 H         1 <0>         0.0000
     20 H2          0.0002   -0.0265   -0.0231 H         1 <0>         0.0000
     21 H3          2.9699    1.4818    6.1634 H         1 <0>         0.0000
     22 H4          4.1305    0.1635    4.1842 H         1 <0>         0.0000
     23 H5          1.3334   -2.5171    3.2296 H         1 <0>         0.0000
     24 H6          4.9614    0.3129    0.9931 H         1 <0>         0.0000
     25 H7          5.2221   -1.4278    0.7216 H         1 <0>         0.0000
     26 H8          4.6387   -0.4167   -0.5993 H         1 <0>         0.0000
     27 H9          4.6929   -3.1441    4.4232 H         1 <0>         0.0000
     28 H10         3.0207   -3.5587    4.0442 H         1 <0>         0.0000
     29 H11         4.8103   -2.3266    2.2990 H         1 <0>         0.0000
     30 H12         0.3668    1.3946    8.7792 H         1 <0>         0.0000
@<TRIPOS>BOND
     1    1    2 ar
     2    1    6 ar
     3    2    8 ar
     4    3    4 1
     5    3    9 2
     6    4   10 2
     7    5    7 ar
     8    5    8 ar
     9    6    7 ar
    10    6   12 1
    11    7   14 1
    12    8   18 1
    13    9   11 1
    14    9   17 1
    15   10   13 1
    16   10   17 1
    17   11   15 2
    18   11   16 1
    19   13   14 1
    20    1   19 1
    21    2   20 1
    22    3   21 1
    23    4   22 1
    24    5   23 1
    25   12   24 1
    26   12   25 1
    27   12   26 1
    28   13   27 1
    29   13   28 1
    30   14   29 1
    31   16   30 1
@<TRIPOS>MOLECULE
*****
   30    31     0     0     0
SMALL
NO_CHARGES

@<TRIPOS>ATOM
      1 C1          1.9149   -0.9807   -0.1093 C.ar      1 <0>         0.0000
      2 C2          0.8057   -0.4648    0.5608 C.ar      1 <0>         0.0000
      3 C3          5.6097   -0.3458    6.3476 C.2       1 <0>         0.0000
      4 C4          4.6377   -0.6592    5.3539 C.2       1 <0>         0.0000
      5 C5          1.7691   -1.1360    2.6723 C.ar      1 <0>         0.0000
      6 C6          2.9512   -1.5744    0.6114 C.ar      1 <0>         0.0000
      7 C7          2.8783   -1.6520    2.0022 C.ar      1 <0>         0.0000
      8 C8          0.7328   -0.5424    1.9516 C.ar      1 <0>         0.0000
      9 C9          6.2878   -1.4645    6.7791 C.2       1 <0>         0.0000
     10 C10         4.6102   -2.0056    5.0637 C.2       1 <0>         0.0000
     11 C11         7.3249   -1.5628    7.7539 C.2       1 <0>         0.0000
     12 C12         4.1264   -2.1206   -0.1324 C.3       1 <0>         0.0000
     13 C13         3.7374   -2.7316    4.0811 C.3       1 <0>         0.0000
     14 N1          3.9181   -2.2502    2.7477 N.pl3     1 <0>         0.0000
     15 O1          7.9119   -2.6085    8.1123 O.2       1 <0>         0.0000
     16 O2          7.6663   -0.3579    8.3144 O.3       1 <0>         0.0000
     17 S1          5.7525   -2.8855    5.9874 S.3       1 <0>         0.0000
     18 Cl1        -0.6358    0.0948    2.7785 Cl        1 <0>         0.0000
     19 H1          1.9616   -0.9158   -1.1932 H         1 <0>         0.0000
     20 H2          0.0060   -0.0046   -0.0136 H         1 <0>         0.0000
     21 H3          5.7981    0.6518    6.7239 H         1 <0>         0.0000
     22 H4          3.9934    0.0694    4.8784 H         1 <0>         0.0000
     23 H5          1.7143   -1.1975    3.7572 H         1 <0>         0.0000
     24 H6          4.8950   -1.3479   -0.2470 H         1 <0>         0.0000
     25 H7          4.5656   -2.9760    0.3949 H         1 <0>         0.0000
     26 H8          3.8343   -2.4745   -1.1286 H         1 <0>         0.0000
     27 H9          3.9603   -3.8041    4.0856 H         1 <0>         0.0000
     28 H10         2.6788   -2.6184    4.3374 H         1 <0>         0.0000
     29 H11         4.8103   -2.3266    2.2990 H         1 <0>         0.0000
     30 H12         8.3795   -0.4146    8.9856 H         1 <0>         0.0000
@<TRIPOS>BOND
     1    1    2 ar
     2    1    6 ar
     3    2    8 ar
     4    3    4 1
     5    3    9 2
     6    4   10 2
     7    5    7 ar
     8    5    8 ar
     9    6    7 ar
    10    6   12 1
    11    7   14 1
    12    8   18 1
    13    9   11 1
    14    9   17 1
    15   10   13 1
    16   10   17 1
    17   11   15 2
    18   11   16 1
    19   13   14 1
    20    1   19 1
    21    2   20 1
    22    3   21 1
    23    4   22 1
    24    5   23 1
    25   12   24 1
    26   12   25 1
    27   12   26 1
    28   13   27 1
    29   13   28 1
    30   14   29 1
    31   16   30 1
@<TRIPOS>MOLECULE
*****
   30    31     0     0     0
SMALL
NO_CHARGES

@<TRIPOS>ATOM
      1 C1          2.1242   -0.2566    0.1798 C.ar      1 <0>         0.0000
      2 C2          0.7997   -0.4873    0.5511 C.ar      1 <0>         0.0000
      3 C3          7.1013   -1.9846    5.6497 C.2       1 <0>         0.0000
      4 C4          6.1169   -1.8568    4.6276 C.2       1 <0>         0.0000
      5 C5          1.5537   -1.8827    2.3736 C.ar      1 <0>         0.0000
      6 C6          3.1636   -0.8390    0.9053 C.ar      1 <0>         0.0000
      7 C7          2.8783   -1.6520    2.0022 C.ar      1 <0>         0.0000
      8 C8          0.5144   -1.3003    1.6480 C.ar      1 <0>         0.0000
      9 C9          6.6873   -2.8178    6.6656 C.2       1 <0>         0.0000
     10 C10         4.9879   -2.5975    4.9011 C.2       1 <0>         0.0000
     11 C11         7.3815   -3.1953    7.8535 C.2       1 <0>         0.0000
     12 C12         4.5729   -0.5764    0.4839 C.3       1 <0>         0.0000
     13 C13         3.7374   -2.7316    4.0811 C.3       1 <0>         0.0000
     14 N1          3.9181   -2.2502    2.7477 N.pl3     1 <0>         0.0000
     15 O1          7.2640   -4.2773    8.4715 O.2       1 <0>         0.0000
     16 O2          8.2480   -2.2346    8.3107 O.3       1 <0>         0.0000
     17 S1          5.1176   -3.4420    6.3851 S.3       1 <0>         0.0000
     18 Cl1        -1.1201   -1.5845    2.1065 Cl        1 <0>         0.0000
     19 H1          2.3358    0.3779   -0.6770 H         1 <0>         0.0000
     20 H2          0.0002   -0.0265   -0.0231 H         1 <0>         0.0000
     21 H3          8.0633   -1.4880    5.6361 H         1 <0>         0.0000
     22 H4          6.2350   -1.2513    3.7379 H         1 <0>         0.0000
     23 H5          1.3334   -2.5171    3.2296 H         1 <0>         0.0000
     24 H6          4.9614    0.3129    0.9931 H         1 <0>         0.0000
     25 H7          5.2221   -1.4278    0.7216 H         1 <0>         0.0000
     26 H8          4.6387   -0.4167   -0.5993 H         1 <0>         0.0000
     27 H9          3.4252   -3.7799    4.0218 H         1 <0>         0.0000
     28 H10         2.9109   -2.1710    4.5303 H         1 <0>         0.0000
     29 H11         4.8103   -2.3266    2.2990 H         1 <0>         0.0000
     30 H12         8.7311   -2.4850    9.1270 H         1 <0>         0.0000
@<TRIPOS>BOND
     1    1    2 ar
     2    1    6 ar
     3    2    8 ar
     4    3    4 1
     5    3    9 2
     6    4   10 2
     7    5    7 ar
     8    5    8 ar
     9    6    7 ar
    10    6   12 1
    11    7   14 1
    12    8   18 1
    13    9   11 1
    14    9   17 1
    15   10   13 1
    16   10   17 1
    17   11   15 2
    18   11   16 1
    19   13   14 1
    20    1   19 1
    21    2   20 1
    22    3   21 1
    23    4   22 1
    24    5   23 1
    25   12   24 1
    26   12   25 1
    27   12   26 1
    28   13   27 1
    29   13   28 1
    30   14   29 1
    31   16   30 1
@<TRIPOS>MOLECULE
*****
   30    31     0     0     0
SMALL
NO_CHARGES

@<TRIPOS>ATOM
      1 C1          1.9149   -0.9807   -0.1093 C.ar      1 <0>         0.0000
      2 C2          0.8057   -0.4648    0.5608 C.ar      1 <0>         0.0000
      3 C3          1.8852   -5.9936    3.5686 C.2       1 <0>         0.0000
      4 C4          2.2492   -4.6655    3.2030 C.2       1 <0>         0.0000
      5 C5          1.7691   -1.1360    2.6723 C.ar      1 <0>         0.0000
      6 C6          2.9512   -1.5744    0.6114 C.ar      1 <0>         0.0000
      7 C7          2.8783   -1.6520    2.0022 C.ar      1 <0>         0.0000
      8 C8          0.7328   -0.5424    1.9516 C.ar      1 <0>         0.0000
      9 C9          2.4960   -6.3947    4.7363 C.2       1 <0>         0.0000
     10 C10         3.1244   -4.1019    4.1055 C.2       1 <0>         0.0000
     11 C11         2.3870   -7.6412    5.4218 C.2       1 <0>         0.0000
     12 C12         4.1264   -2.1206   -0.1324 C.3       1 <0>         0.0000
     13 C13         3.7374   -2.7316    4.0811 C.3       1 <0>         0.0000
     14 N1          3.9181   -2.2502    2.7477 N.pl3     1 <0>         0.0000
     15 O1          2.9658   -7.9581    6.4854 O.2       1 <0>         0.0000
     16 O2          1.5501   -8.5355    4.8034 O.3       1 <0>         0.0000
     17 S1          3.5037   -5.1726    5.3869 S.3       1 <0>         0.0000
     18 Cl1        -0.6358    0.0948    2.7785 Cl        1 <0>         0.0000
     19 H1          1.9616   -0.9158   -1.1932 H         1 <0>         0.0000
     20 H2          0.0060   -0.0046   -0.0136 H         1 <0>         0.0000
     21 H3          1.2090   -6.6195    3.0000 H         1 <0>         0.0000
     22 H4          1.8851   -4.1528    2.3217 H         1 <0>         0.0000
     23 H5          1.7143   -1.1975    3.7572 H         1 <0>         0.0000
     24 H6          4.8950   -1.3479   -0.2470 H         1 <0>         0.0000
     25 H7          4.5656   -2.9760    0.3949 H         1 <0>         0.0000
     26 H8          3.8343   -2.4745   -1.1286 H         1 <0>         0.0000
     27 H9          3.1035   -2.0154    4.6152 H         1 <0>         0.0000
     28 H10         4.7158   -2.7300    4.5731 H         1 <0>         0.0000
     29 H11         4.8103   -2.3266    2.2990 H         1 <0>         0.0000
     30 H12         1.4676   -9.3957    5.2676 H         1 <0>         0.0000
@<TRIPOS>BOND
     1    1    2 ar
     2    1    6 ar
     3    2    8 ar
     4    3    4 1
     5    3    9 2
     6    4   10 2
     7    5    7 ar
     8    5    8 ar
     9    6    7 ar
    10    6   12 1
    11    7   14 1
    12    8   18 1
    13    9   11 1
    14    9   17 1
    15   10   13 1
    16   10   17 1
    17   11   15 2
    18   11   16 1
    19   13   14 1
    20    1   19 1
    21    2   20 1
    22    3   21 1
    23    4   22 1
    24    5   23 1
    25   12   24 1
    26   12   25 1
    27   12   26 1
    28   13   27 1
    29   13   28 1
    30   14   29 1
    31   16   30 1
@<TRIPOS>MOLECULE
*****
   30    31     0     0     0
SMALL
NO_CHARGES

@<TRIPOS>ATOM
      1 C1          2.1242   -0.2566    0.1798 C.ar      1 <0>         0.0000
      2 C2          0.7997   -0.4873    0.5511 C.ar      1 <0>         0.0000
      3 C3          4.7885    0.2208    6.2055 C.2       1 <0>         0.0000
      4 C4          4.8332   -0.5803    5.0280 C.2       1 <0>         0.0000
      5 C5          1.5537   -1.8827    2.3736 C.ar      1 <0>         0.0000
      6 C6          3.1636   -0.8390    0.9053 C.ar      1 <0>         0.0000
      7 C7          2.8783   -1.6520    2.0022 C.ar      1 <0>         0.0000
      8 C8          0.5144   -1.3003    1.6480 C.ar      1 <0>         0.0000
      9 C9          3.9023   -0.2759    7.1358 C.2       1 <0>         0.0000
     10 C10         3.9796   -1.6590    5.1033 C.2       1 <0>         0.0000
     11 C11         3.5785    0.2367    8.4273 C.2       1 <0>         0.0000
     12 C12         4.5729   -0.5764    0.4839 C.3       1 <0>         0.0000
     13 C13         3.7374   -2.7316    4.0811 C.3       1 <0>         0.0000
     14 N1          3.9181   -2.2502    2.7477 N.pl3     1 <0>         0.0000
     15 O1          2.7620   -0.2542    9.2389 O.2       1 <0>         0.0000
     16 O2          4.2643    1.3801    8.7509 O.3       1 <0>         0.0000
     17 S1          3.1290   -1.7025    6.5889 S.3       1 <0>         0.0000
     18 Cl1        -1.1201   -1.5845    2.1065 Cl        1 <0>         0.0000
     19 H1          2.3358    0.3779   -0.6770 H         1 <0>         0.0000
     20 H2          0.0002   -0.0265   -0.0231 H         1 <0>         0.0000
     21 H3          5.3785    1.1157    6.3576 H         1 <0>         0.0000
     22 H4          5.4615   -0.3723    4.1711 H         1 <0>         0.0000
     23 H5          1.3334   -2.5171    3.2296 H         1 <0>         0.0000
     24 H6          4.9614    0.3129    0.9931 H         1 <0>         0.0000
     25 H7          5.2221   -1.4278    0.7216 H         1 <0>         0.0000
     26 H8          4.6387   -0.4167   -0.5993 H         1 <0>         0.0000
     27 H9          4.4244   -3.5714    4.2325 H         1 <0>         0.0000
     28 H10         2.7190   -3.1263    4.1594 H         1 <0>         0.0000
     29 H11         4.8103   -2.3266    2.2990 H         1 <0>         0.0000
     30 H12         4.0493    1.7402    9.6377 H         1 <0>         0.0000
@<TRIPOS>BOND
     1    1    2 ar
     2    1    6 ar
     3    2    8 ar
     4    3    4 1
     5    3    9 2
     6    4   10 2
     7    5    7 ar
     8    5    8 ar
     9    6    7 ar
    10    6   12 1
    11    7   14 1
    12    8   18 1
    13    9   11 1
    14    9   17 1
    15   10   13 1
    16   10   17 1
    17   11   15 2
    18   11   16 1
    19   13   14 1
    20    1   19 1
    21    2   20 1
    22    3   21 1
    23    4   22 1
    24    5   23 1
    25   12   24 1
    26   12   25 1
    27   12   26 1
    28   13   27 1
    29   13   28 1
    30   14   29 1
    31   16   30 1
@<TRIPOS>MOLECULE
*****
   30    31     0     0     0
SMALL
NO_CHARGES

@<TRIPOS>ATOM
      1 C1          1.9149   -0.9807   -0.1093 C.ar      1 <0>         0.0000
      2 C2          0.8057   -0.4648    0.5608 C.ar      1 <0>         0.0000
      3 C3          6.1962   -1.5148    6.6903 C.2       1 <0>         0.0000
      4 C4          5.5791   -2.5232    5.8951 C.2       1 <0>         0.0000
      5 C5          1.7691   -1.1360    2.6723 C.ar      1 <0>         0.0000
      6 C6          2.9512   -1.5744    0.6114 C.ar      1 <0>         0.0000
      7 C7          2.8783   -1.6520    2.0022 C.ar      1 <0>         0.0000
      8 C8          0.7328   -0.5424    1.9516 C.ar      1 <0>         0.0000
      9 C9          5.6758   -0.2649    6.4363 C.2       1 <0>         0.0000
     10 C10         4.6102   -2.0056    5.0637 C.2       1 <0>         0.0000
     11 C11         6.0261    0.9874    7.0234 C.2       1 <0>         0.0000
     12 C12         4.1264   -2.1206   -0.1324 C.3       1 <0>         0.0000
     13 C13         3.7374   -2.7316    4.0811 C.3       1 <0>         0.0000
     14 N1          3.9181   -2.2502    2.7477 N.pl3     1 <0>         0.0000
     15 O1          5.5206    2.1009    6.7568 O.2       1 <0>         0.0000
     16 O2          7.0193    0.8925    7.9652 O.3       1 <0>         0.0000
     17 S1          4.4481   -0.3104    5.2434 S.3       1 <0>         0.0000
     18 Cl1        -0.6358    0.0948    2.7785 Cl        1 <0>         0.0000
     19 H1          1.9616   -0.9158   -1.1932 H         1 <0>         0.0000
     20 H2          0.0060   -0.0046   -0.0136 H         1 <0>         0.0000
     21 H3          6.9823   -1.7018    7.4110 H         1 <0>         0.0000
     22 H4          5.8357   -3.5743    5.9342 H         1 <0>         0.0000
     23 H5          1.7143   -1.1975    3.7572 H         1 <0>         0.0000
     24 H6          4.8950   -1.3479   -0.2470 H         1 <0>         0.0000
     25 H7          4.5656   -2.9760    0.3949 H         1 <0>         0.0000
     26 H8          3.8343   -2.4745   -1.1286 H         1 <0>         0.0000
     27 H9          3.9603   -3.8041    4.0856 H         1 <0>         0.0000
     28 H10         2.6788   -2.6184    4.3374 H         1 <0>         0.0000
     29 H11         4.8103   -2.3266    2.2990 H         1 <0>         0.0000
     30 H12         7.2669    1.7485    8.3756 H         1 <0>         0.0000
@<TRIPOS>BOND
     1    1    2 ar
     2    1    6 ar
     3    2    8 ar
     4    3    4 1
     5    3    9 2
     6    4   10 2
     7    5    7 ar
     8    5    8 ar
     9    6    7 ar
    10    6   12 1
    11    7   14 1
    12    8   18 1
    13    9   11 1
    14    9   17 1
    15   10   13 1
    16   10   17 1
    17   11   15 2
    18   11   16 1
    19   13   14 1
    20    1   19 1
    21    2   20 1
    22    3   21 1
    23    4   22 1
    24    5   23 1
    25   12   24 1
    26   12   25 1
    27   12   26 1
    28   13   27 1
    29   13   28 1
    30   14   29 1
    31   16   30 1
@<TRIPOS>MOLECULE
*****
   30    31     0     0     0
SMALL
NO_CHARGES

@<TRIPOS>ATOM
      1 C1          2.1242   -0.2566    0.1798 C.ar      1 <0>         0.0000
      2 C2          0.7997   -0.4873    0.5511 C.ar      1 <0>         0.0000
      3 C3          2.2328   -0.5093    6.7516 C.2       1 <0>         0.0000
      4 C4          2.4679   -1.7682    6.1270 C.2       1 <0>         0.0000
      5 C5          1.5537   -1.8827    2.3736 C.ar      1 <0>         0.0000
      6 C6          3.1636   -0.8390    0.9053 C.ar      1 <0>         0.0000
      7 C7          2.8783   -1.6520    2.0022 C.ar      1 <0>         0.0000
      8 C8          0.5144   -1.3003    1.6480 C.ar      1 <0>         0.0000
      9 C9          2.8593    0.5226    6.0881 C.2       1 <0>         0.0000
     10 C10         3.2651   -1.6504    5.0096 C.2       1 <0>         0.0000
     11 C11         2.8637    1.9152    6.3983 C.2       1 <0>         0.0000
     12 C12         4.5729   -0.5764    0.4839 C.3       1 <0>         0.0000
     13 C13         3.7374   -2.7316    4.0811 C.3       1 <0>         0.0000
     14 N1          3.9181   -2.2502    2.7477 N.pl3     1 <0>         0.0000
     15 O1          3.4517    2.8173    5.7604 O.2       1 <0>         0.0000
     16 O2          2.1325    2.2301    7.5158 O.3       1 <0>         0.0000
     17 S1          3.7266   -0.0274    4.7178 S.3       1 <0>         0.0000
     18 Cl1        -1.1201   -1.5845    2.1065 Cl        1 <0>         0.0000
     19 H1          2.3358    0.3779   -0.6770 H         1 <0>         0.0000
     20 H2          0.0002   -0.0265   -0.0231 H         1 <0>         0.0000
     21 H3          1.6336   -0.3726    7.6430 H         1 <0>         0.0000
     22 H4          2.0702   -2.7103    6.4825 H         1 <0>         0.0000
     23 H5          1.3334   -2.5171    3.2296 H         1 <0>         0.0000
     24 H6          4.9614    0.3129    0.9931 H         1 <0>         0.0000
     25 H7          5.2221   -1.4278    0.7216 H         1 <0>         0.0000
     26 H8          4.6387   -0.4167   -0.5993 H         1 <0>         0.0000
     27 H9          4.6929   -3.1441    4.4232 H         1 <0>         0.0000
     28 H10         3.0207   -3.5587    4.0442 H         1 <0>         0.0000
     29 H11         4.8103   -2.3266    2.2990 H         1 <0>         0.0000
     30 H12         2.1286    3.1858    7.7372 H         1 <0>         0.0000
@<TRIPOS>BOND
     1    1    2 ar
     2    1    6 ar
     3    2    8 ar
     4    3    4 1
     5    3    9 2
     6    4   10 2
     7    5    7 ar
     8    5    8 ar
     9    6    7 ar
    10    6   12 1
    11    7   14 1
    12    8   18 1
    13    9   11 1
    14    9   17 1
    15   10   13 1
    16   10   17 1
    17   11   15 2
    18   11   16 1
    19   13   14 1
    20    1   19 1
    21    2   20 1
    22    3   21 1
    23    4   22 1
    24    5   23 1
    25   12   24 1
    26   12   25 1
    27   12   26 1
    28   13   27 1
    29   13   28 1
    30   14   29 1
    31   16   30 1
@<TRIPOS>MOLECULE
*****
   30    31     0     0     0
SMALL
NO_CHARGES

@<TRIPOS>ATOM
      1 C1          1.9149   -0.9807   -0.1093 C.ar      1 <0>         0.0000
      2 C2          0.8057   -0.4648    0.5608 C.ar      1 <0>         0.0000
      3 C3          6.0246   -0.4517    6.0572 C.2       1 <0>         0.0000
      4 C4          5.2994   -0.8256    4.8891 C.2       1 <0>         0.0000
      5 C5          1.7691   -1.1360    2.6723 C.ar      1 <0>         0.0000
      6 C6          2.9512   -1.5744    0.6114 C.ar      1 <0>         0.0000
      7 C7          2.8783   -1.6520    2.0022 C.ar      1 <0>         0.0000
      8 C8          0.7328   -0.5424    1.9516 C.ar      1 <0>         0.0000
      9 C9          5.8620   -1.3600    7.0801 C.2       1 <0>         0.0000
     10 C10         4.6102   -2.0056    5.0637 C.2       1 <0>         0.0000
     11 C11         6.4198   -1.3397    8.3931 C.2       1 <0>         0.0000
     12 C12         4.1264   -2.1206   -0.1324 C.3       1 <0>         0.0000
     13 C13         3.7374   -2.7316    4.0811 C.3       1 <0>         0.0000
     14 N1          3.9181   -2.2502    2.7477 N.pl3     1 <0>         0.0000
     15 O1          6.2404   -2.1935    9.2905 O.2       1 <0>         0.0000
     16 O2          7.2225   -0.2527    8.6309 O.3       1 <0>         0.0000
     17 S1          4.8385   -2.6573    6.6306 S.3       1 <0>         0.0000
     18 Cl1        -0.6358    0.0948    2.7785 Cl        1 <0>         0.0000
     19 H1          1.9616   -0.9158   -1.1932 H         1 <0>         0.0000
     20 H2          0.0060   -0.0046   -0.0136 H         1 <0>         0.0000
     21 H3          6.6335    0.4399    6.1384 H         1 <0>         0.0000
     22 H4          5.2868   -0.2549    3.9691 H         1 <0>         0.0000
     23 H5          1.7143   -1.1975    3.7572 H         1 <0>         0.0000
     24 H6          4.8950   -1.3479   -0.2470 H         1 <0>         0.0000
     25 H7          4.5656   -2.9760    0.3949 H         1 <0>         0.0000
     26 H8          3.8343   -2.4745   -1.1286 H         1 <0>         0.0000
     27 H9          3.9603   -3.8041    4.0856 H         1 <0>         0.0000
     28 H10         2.6788   -2.6184    4.3374 H         1 <0>         0.0000
     29 H11         4.8103   -2.3266    2.2990 H         1 <0>         0.0000
     30 H12         7.6118   -0.2299    9.5310 H         1 <0>         0.0000
@<TRIPOS>BOND
     1    1    2 ar
     2    1    6 ar
     3    2    8 ar
     4    3    4 1
     5    3    9 2
     6    4   10 2
     7    5    7 ar
     8    5    8 ar
     9    6    7 ar
    10    6   12 1
    11    7   14 1
    12    8   18 1
    13    9   11 1
    14    9   17 1
    15   10   13 1
    16   10   17 1
    17   11   15 2
    18   11   16 1
    19   13   14 1
    20    1   19 1
    21    2   20 1
    22    3   21 1
    23    4   22 1
    24    5   23 1
    25   12   24 1
    26   12   25 1
    27   12   26 1
    28   13   27 1
    29   13   28 1
    30   14   29 1
    31   16   30 1
@<TRIPOS>MOLECULE
*****
   30    31     0     0     0
SMALL
NO_CHARGES

@<TRIPOS>ATOM
      1 C1          1.9149   -0.9807   -0.1093 C.ar      1 <0>         0.0000
      2 C2          0.8057   -0.4648    0.5608 C.ar      1 <0>         0.0000
      3 C3          5.9689   -5.5815    5.1913 C.2       1 <0>         0.0000
      4 C4          4.7052   -5.0003    4.8824 C.2       1 <0>         0.0000
      5 C5          1.7691   -1.1360    2.6723 C.ar      1 <0>         0.0000
      6 C6          2.9512   -1.5744    0.6114 C.ar      1 <0>         0.0000
      7 C7          2.8783   -1.6520    2.0022 C.ar      1 <0>         0.0000
      8 C8          0.7328   -0.5424    1.9516 C.ar      1 <0>         0.0000
      9 C9          7.0046   -4.6898    5.0189 C.2       1 <0>         0.0000
     10 C10         4.8233   -3.6862    4.4858 C.2       1 <0>         0.0000
     11 C11         8.4024   -4.8900    5.2236 C.2       1 <0>         0.0000
     12 C12         4.1264   -2.1206   -0.1324 C.3       1 <0>         0.0000
     13 C13         3.7374   -2.7316    4.0811 C.3       1 <0>         0.0000
     14 N1          3.9181   -2.2502    2.7477 N.pl3     1 <0>         0.0000
     15 O1          9.1350   -4.2606    6.0195 O.2       1 <0>         0.0000
     16 O2          8.9338   -5.8845    4.4418 O.3       1 <0>         0.0000
     17 S1          6.4524   -3.1587    4.4867 S.3       1 <0>         0.0000
     18 Cl1        -0.6358    0.0948    2.7785 Cl        1 <0>         0.0000
     19 H1          1.9616   -0.9158   -1.1932 H         1 <0>         0.0000
     20 H2          0.0060   -0.0046   -0.0136 H         1 <0>         0.0000
     21 H3          6.1062   -6.6030    5.5228 H         1 <0>         0.0000
     22 H4          3.7596   -5.5231    4.9493 H         1 <0>         0.0000
     23 H5          1.7143   -1.1975    3.7572 H         1 <0>         0.0000
     24 H6          4.8950   -1.3479   -0.2470 H         1 <0>         0.0000
     25 H7          4.5656   -2.9760    0.3949 H         1 <0>         0.0000
     26 H8          3.8343   -2.4745   -1.1286 H         1 <0>         0.0000
     27 H9          2.7569   -3.2171    4.1345 H         1 <0>         0.0000
     28 H10         3.7077   -1.8643    4.7490 H         1 <0>         0.0000
     29 H11         4.8103   -2.3266    2.2990 H         1 <0>         0.0000
     30 H12         9.8946   -6.0306    4.5758 H         1 <0>         0.0000
@<TRIPOS>BOND
     1    1    2 ar
     2    1    6 ar
     3    2    8 ar
     4    3    4 1
     5    3    9 2
     6    4   10 2
     7    5    7 ar
     8    5    8 ar
     9    6    7 ar
    10    6   12 1
    11    7   14 1
    12    8   18 1
    13    9   11 1
    14    9   17 1
    15   10   13 1
    16   10   17 1
    17   11   15 2
    18   11   16 1
    19   13   14 1
    20    1   19 1
    21    2   20 1
    22    3   21 1
    23    4   22 1
    24    5   23 1
    25   12   24 1
    26   12   25 1
    27   12   26 1
    28   13   27 1
    29   13   28 1
    30   14   29 1
    31   16   30 1
@<TRIPOS>MOLECULE
*****
   30    31     0     0     0
SMALL
NO_CHARGES

@<TRIPOS>ATOM
      1 C1          2.1242   -0.2566    0.1798 C.ar      1 <0>         0.0000
      2 C2          0.7997   -0.4873    0.5511 C.ar      1 <0>         0.0000
      3 C3          1.6955   -5.8921    4.5001 C.2       1 <0>         0.0000
      4 C4          1.9415   -4.5013    4.6880 C.2       1 <0>         0.0000
      5 C5          1.5537   -1.8827    2.3736 C.ar      1 <0>         0.0000
      6 C6          3.1636   -0.8390    0.9053 C.ar      1 <0>         0.0000
      7 C7          2.8783   -1.6520    2.0022 C.ar      1 <0>         0.0000
      8 C8          0.5144   -1.3003    1.6480 C.ar      1 <0>         0.0000
      9 C9          2.6994   -6.5027    3.7810 C.2       1 <0>         0.0000
     10 C10         3.1244   -4.1019    4.1055 C.2       1 <0>         0.0000
     11 C11         2.8175   -7.8700    3.3909 C.2       1 <0>         0.0000
     12 C12         4.5729   -0.5764    0.4839 C.3       1 <0>         0.0000
     13 C13         3.7374   -2.7316    4.0811 C.3       1 <0>         0.0000
     14 N1          3.9181   -2.2502    2.7477 N.pl3     1 <0>         0.0000
     15 O1          3.3920   -8.3042    2.3673 O.2       1 <0>         0.0000
     16 O2          2.2231   -8.7431    4.2667 O.3       1 <0>         0.0000
     17 S1          3.9322   -5.4008    3.3358 S.3       1 <0>         0.0000
     18 Cl1        -1.1201   -1.5845    2.1065 Cl        1 <0>         0.0000
     19 H1          2.3358    0.3779   -0.6770 H         1 <0>         0.0000
     20 H2          0.0002   -0.0265   -0.0231 H         1 <0>         0.0000
     21 H3          0.8242   -6.4140    4.8753 H         1 <0>         0.0000
     22 H4          1.2817   -3.8312    5.2243 H         1 <0>         0.0000
     23 H5          1.3334   -2.5171    3.2296 H         1 <0>         0.0000
     24 H6          4.9614    0.3129    0.9931 H         1 <0>         0.0000
     25 H7          5.2221   -1.4278    0.7216 H         1 <0>         0.0000
     26 H8          4.6387   -0.4167   -0.5993 H         1 <0>         0.0000
     27 H9          3.1035   -2.0154    4.6152 H         1 <0>         0.0000
     28 H10         4.7158   -2.7300    4.5731 H         1 <0>         0.0000
     29 H11         4.8103   -2.3266    2.2990 H         1 <0>         0.0000
     30 H12         2.2996   -9.6862    4.0077 H         1 <0>         0.0000
@<TRIPOS>BOND
     1    1    2 ar
     2    1    6 ar
     3    2    8 ar
     4    3    4 1
     5    3    9 2
     6    4   10 2
     7    5    7 ar
     8    5    8 ar
     9    6    7 ar
    10    6   12 1
    11    7   14 1
    12    8   18 1
    13    9   11 1
    14    9   17 1
    15   10   13 1
    16   10   17 1
    17   11   15 2
    18   11   16 1
    19   13   14 1
    20    1   19 1
    21    2   20 1
    22    3   21 1
    23    4   22 1
    24    5   23 1
    25   12   24 1
    26   12   25 1
    27   12   26 1
    28   13   27 1
    29   13   28 1
    30   14   29 1
    31   16   30 1
@<TRIPOS>MOLECULE
*****
   30    31     0     0     0
SMALL
NO_CHARGES

@<TRIPOS>ATOM
      1 C1          1.9149   -0.9807   -0.1093 C.ar      1 <0>         0.0000
      2 C2          0.8057   -0.4648    0.5608 C.ar      1 <0>         0.0000
      3 C3          6.8449   -3.0672    6.2178 C.2       1 <0>         0.0000
      4 C4          5.7115   -3.5877    5.5287 C.2       1 <0>         0.0000
      5 C5          1.7691   -1.1360    2.6723 C.ar      1 <0>         0.0000
      6 C6          2.9512   -1.5744    0.6114 C.ar      1 <0>         0.0000
      7 C7          2.8783   -1.6520    2.0022 C.ar      1 <0>         0.0000
      8 C8          0.7328   -0.5424    1.9516 C.ar      1 <0>         0.0000
      9 C9          6.9445   -1.6992    6.0904 C.2       1 <0>         0.0000
     10 C10         4.9879   -2.5975    4.9011 C.2       1 <0>         0.0000
     11 C11         7.9296   -0.8188    6.6292 C.2       1 <0>         0.0000
     12 C12         4.1264   -2.1206   -0.1324 C.3       1 <0>         0.0000
     13 C13         3.7374   -2.7316    4.0811 C.3       1 <0>         0.0000
     14 N1          3.9181   -2.2502    2.7477 N.pl3     1 <0>         0.0000
     15 O1          7.9759    0.4234    6.4839 O.2       1 <0>         0.0000
     16 O2          8.8908   -1.4593    7.3698 O.3       1 <0>         0.0000
     17 S1          5.6751   -1.0479    5.1435 S.3       1 <0>         0.0000
     18 Cl1        -0.6358    0.0948    2.7785 Cl        1 <0>         0.0000
     19 H1          1.9616   -0.9158   -1.1932 H         1 <0>         0.0000
     20 H2          0.0060   -0.0046   -0.0136 H         1 <0>         0.0000
     21 H3          7.5490   -3.6701    6.7772 H         1 <0>         0.0000
     22 H4          5.4439   -4.6363    5.4977 H         1 <0>         0.0000
     23 H5          1.7143   -1.1975    3.7572 H         1 <0>         0.0000
     24 H6          4.8950   -1.3479   -0.2470 H         1 <0>         0.0000
     25 H7          4.5656   -2.9760    0.3949 H         1 <0>         0.0000
     26 H8          3.8343   -2.4745   -1.1286 H         1 <0>         0.0000
     27 H9          3.4252   -3.7799    4.0218 H         1 <0>         0.0000
     28 H10         2.9109   -2.1710    4.5303 H         1 <0>         0.0000
     29 H11         4.8103   -2.3266    2.2990 H         1 <0>         0.0000
     30 H12         9.5726   -0.8624    7.7455 H         1 <0>         0.0000
@<TRIPOS>BOND
     1    1    2 ar
     2    1    6 ar
     3    2    8 ar
     4    3    4 1
     5    3    9 2
     6    4   10 2
     7    5    7 ar
     8    5    8 ar
     9    6    7 ar
    10    6   12 1
    11    7   14 1
    12    8   18 1
    13    9   11 1
    14    9   17 1
    15   10   13 1
    16   10   17 1
    17   11   15 2
    18   11   16 1
    19   13   14 1
    20    1   19 1
    21    2   20 1
    22    3   21 1
    23    4   22 1
    24    5   23 1
    25   12   24 1
    26   12   25 1
    27   12   26 1
    28   13   27 1
    29   13   28 1
    30   14   29 1
    31   16   30 1
@<TRIPOS>MOLECULE
*****
   30    31     0     0     0
SMALL
NO_CHARGES

@<TRIPOS>ATOM
      1 C1          2.1242   -0.2566    0.1798 C.ar      1 <0>         0.0000
      2 C2          0.7997   -0.4873    0.5511 C.ar      1 <0>         0.0000
      3 C3          1.9422   -0.3106    6.3724 C.2       1 <0>         0.0000
      4 C4          2.0019   -1.4529    5.5228 C.2       1 <0>         0.0000
      5 C5          1.5537   -1.8827    2.3736 C.ar      1 <0>         0.0000
      6 C6          3.1636   -0.8390    0.9053 C.ar      1 <0>         0.0000
      7 C7          2.8783   -1.6520    2.0022 C.ar      1 <0>         0.0000
      8 C8          0.5144   -1.3003    1.6480 C.ar      1 <0>         0.0000
      9 C9          3.1618    0.3213    6.4763 C.2       1 <0>         0.0000
     10 C10         3.2651   -1.6504    5.0096 C.2       1 <0>         0.0000
     11 C11         3.5059    1.4868    7.2239 C.2       1 <0>         0.0000
     12 C12         4.5729   -0.5764    0.4839 C.3       1 <0>         0.0000
     13 C13         3.7374   -2.7316    4.0811 C.3       1 <0>         0.0000
     14 N1          3.9181   -2.2502    2.7477 N.pl3     1 <0>         0.0000
     15 O1          4.3918    2.3218    6.9335 O.2       1 <0>         0.0000
     16 O2          2.7545    1.6507    8.3602 O.3       1 <0>         0.0000
     17 S1          4.3720   -0.4619    5.5521 S.3       1 <0>         0.0000
     18 Cl1        -1.1201   -1.5845    2.1065 Cl        1 <0>         0.0000
     19 H1          2.3358    0.3779   -0.6770 H         1 <0>         0.0000
     20 H2          0.0002   -0.0265   -0.0231 H         1 <0>         0.0000
     21 H3          1.0471    0.0265    6.8798 H         1 <0>         0.0000
     22 H4          1.1584   -2.0946    5.3017 H         1 <0>         0.0000
     23 H5          1.3334   -2.5171    3.2296 H         1 <0>         0.0000
     24 H6          4.9614    0.3129    0.9931 H         1 <0>         0.0000
     25 H7          5.2221   -1.4278    0.7216 H         1 <0>         0.0000
     26 H8          4.6387   -0.4167   -0.5993 H         1 <0>         0.0000
     27 H9          4.6929   -3.1441    4.4232 H         1 <0>         0.0000
     28 H10         3.0207   -3.5587    4.0442 H         1 <0>         0.0000
     29 H11         4.8103   -2.3266    2.2990 H         1 <0>         0.0000
     30 H12         2.9830    2.4501    8.8810 H         1 <0>         0.0000
@<TRIPOS>BOND
     1    1    2 ar
     2    1    6 ar
     3    2    8 ar
     4    3    4 1
     5    3    9 2
     6    4   10 2
     7    5    7 ar
     8    5    8 ar
     9    6    7 ar
    10    6   12 1
    11    7   14 1
    12    8   18 1
    13    9   11 1
    14    9   17 1
    15   10   13 1
    16   10   17 1
    17   11   15 2
    18   11   16 1
    19   13   14 1
    20    1   19 1
    21    2   20 1
    22    3   21 1
    23    4   22 1
    24    5   23 1
    25   12   24 1
    26   12   25 1
    27   12   26 1
    28   13   27 1
    29   13   28 1
    30   14   29 1
    31   16   30 1
@<TRIPOS>MOLECULE
*****
   30    31     0     0     0
SMALL
NO_CHARGES

@<TRIPOS>ATOM
      1 C1          1.9149   -0.9807   -0.1093 C.ar      1 <0>         0.0000
      2 C2          0.8057   -0.4648    0.5608 C.ar      1 <0>         0.0000
      3 C3          6.6028   -4.6843    5.6011 C.2       1 <0>         0.0000
      4 C4          5.2679   -4.5482    5.1219 C.2       1 <0>         0.0000
      5 C5          1.7691   -1.1360    2.6723 C.ar      1 <0>         0.0000
      6 C6          2.9512   -1.5744    0.6114 C.ar      1 <0>         0.0000
      7 C7          2.8783   -1.6520    2.0022 C.ar      1 <0>         0.0000
      8 C8          0.7328   -0.5424    1.9516 C.ar      1 <0>         0.0000
      9 C9          7.3159   -3.5113    5.4866 C.2       1 <0>         0.0000
     10 C10         5.0115   -3.2761    4.6594 C.2       1 <0>         0.0000
     11 C11         8.6690   -3.2462    5.8531 C.2       1 <0>         0.0000
     12 C12         4.1264   -2.1206   -0.1324 C.3       1 <0>         0.0000
     13 C13         3.7374   -2.7316    4.0811 C.3       1 <0>         0.0000
     14 N1          3.9181   -2.2502    2.7477 N.pl3     1 <0>         0.0000
     15 O1          9.5864   -2.8701    5.0892 O.2       1 <0>         0.0000
     16 O2          8.9235   -3.4403    7.1873 O.3       1 <0>         0.0000
     17 S1          6.3769   -2.2527    4.8036 S.3       1 <0>         0.0000
     18 Cl1        -0.6358    0.0948    2.7785 Cl        1 <0>         0.0000
     19 H1          1.9616   -0.9158   -1.1932 H         1 <0>         0.0000
     20 H2          0.0060   -0.0046   -0.0136 H         1 <0>         0.0000
     21 H3          7.0148   -5.5990    6.0084 H         1 <0>         0.0000
     22 H4          4.5357   -5.3457    5.1185 H         1 <0>         0.0000
     23 H5          1.7143   -1.1975    3.7572 H         1 <0>         0.0000
     24 H6          4.8950   -1.3479   -0.2470 H         1 <0>         0.0000
     25 H7          4.5656   -2.9760    0.3949 H         1 <0>         0.0000
     26 H8          3.8343   -2.4745   -1.1286 H         1 <0>         0.0000
     27 H9          2.9622   -3.5053    4.0582 H         1 <0>         0.0000
     28 H10         3.3532   -1.9040    4.6866 H         1 <0>         0.0000
     29 H11         4.8103   -2.3266    2.2990 H         1 <0>         0.0000
     30 H12         9.8514   -3.2598    7.4498 H         1 <0>         0.0000
@<TRIPOS>BOND
     1    1    2 ar
     2    1    6 ar
     3    2    8 ar
     4    3    4 1
     5    3    9 2
     6    4   10 2
     7    5    7 ar
     8    5    8 ar
     9    6    7 ar
    10    6   12 1
    11    7   14 1
    12    8   18 1
    13    9   11 1
    14    9   17 1
    15   10   13 1
    16   10   17 1
    17   11   15 2
    18   11   16 1
    19   13   14 1
    20    1   19 1
    21    2   20 1
    22    3   21 1
    23    4   22 1
    24    5   23 1
    25   12   24 1
    26   12   25 1
    27   12   26 1
    28   13   27 1
    29   13   28 1
    30   14   29 1
    31   16   30 1
@<TRIPOS>MOLECULE
*****
   30    31     0     0     0
SMALL
NO_CHARGES

@<TRIPOS>ATOM
      1 C1          2.1242   -0.2566    0.1798 C.ar      1 <0>         0.0000
      2 C2          0.7997   -0.4873    0.5511 C.ar      1 <0>         0.0000
      3 C3          5.3665   -0.5823    6.7383 C.2       1 <0>         0.0000
      4 C4          4.2518   -1.0387    5.9772 C.2       1 <0>         0.0000
      5 C5          1.5537   -1.8827    2.3736 C.ar      1 <0>         0.0000
      6 C6          3.1636   -0.8390    0.9053 C.ar      1 <0>         0.0000
      7 C7          2.8783   -1.6520    2.0022 C.ar      1 <0>         0.0000
      8 C8          0.5144   -1.3003    1.6480 C.ar      1 <0>         0.0000
      9 C9          6.5343   -1.2177    6.3777 C.2       1 <0>         0.0000
     10 C10         4.6102   -2.0056    5.0637 C.2       1 <0>         0.0000
     11 C11         7.8496   -1.0390    6.9007 C.2       1 <0>         0.0000
     12 C12         4.5729   -0.5764    0.4839 C.3       1 <0>         0.0000
     13 C13         3.7374   -2.7316    4.0811 C.3       1 <0>         0.0000
     14 N1          3.9181   -2.2502    2.7477 N.pl3     1 <0>         0.0000
     15 O1          8.8831   -1.6442    6.5371 O.2       1 <0>         0.0000
     16 O2          7.9205   -0.0968    7.8957 O.3       1 <0>         0.0000
     17 S1          6.2845   -2.3594    5.1262 S.3       1 <0>         0.0000
     18 Cl1        -1.1201   -1.5845    2.1065 Cl        1 <0>         0.0000
     19 H1          2.3358    0.3779   -0.6770 H         1 <0>         0.0000
     20 H2          0.0002   -0.0265   -0.0231 H         1 <0>         0.0000
     21 H3          5.3095    0.1743    7.5107 H         1 <0>         0.0000
     22 H4          3.2397   -0.6735    6.0968 H         1 <0>         0.0000
     23 H5          1.3334   -2.5171    3.2296 H         1 <0>         0.0000
     24 H6          4.9614    0.3129    0.9931 H         1 <0>         0.0000
     25 H7          5.2221   -1.4278    0.7216 H         1 <0>         0.0000
     26 H8          4.6387   -0.4167   -0.5993 H         1 <0>         0.0000
     27 H9          3.9603   -3.8041    4.0856 H         1 <0>         0.0000
     28 H10         2.6788   -2.6184    4.3374 H         1 <0>         0.0000
     29 H11         4.8103   -2.3266    2.2990 H         1 <0>         0.0000
     30 H12         8.8213    0.0342    8.2615 H         1 <0>         0.0000
@<TRIPOS>BOND
     1    1    2 ar
     2    1    6 ar
     3    2    8 ar
     4    3    4 1
     5    3    9 2
     6    4   10 2
     7    5    7 ar
     8    5    8 ar
     9    6    7 ar
    10    6   12 1
    11    7   14 1
    12    8   18 1
    13    9   11 1
    14    9   17 1
    15   10   13 1
    16   10   17 1
    17   11   15 2
    18   11   16 1
    19   13   14 1
    20    1   19 1
    21    2   20 1
    22    3   21 1
    23    4   22 1
    24    5   23 1
    25   12   24 1
    26   12   25 1
    27   12   26 1
    28   13   27 1
    29   13   28 1
    30   14   29 1
    31   16   30 1
@<TRIPOS>MOLECULE
*****
   30    31     0     0     0
SMALL
NO_CHARGES

@<TRIPOS>ATOM
      1 C1          2.1242   -0.2566    0.1798 C.ar      1 <0>         0.0000
      2 C2          0.7997   -0.4873    0.5511 C.ar      1 <0>         0.0000
      3 C3          4.8307   -0.4431    6.8921 C.2       1 <0>         0.0000
      4 C4          4.9061   -1.6400    6.1227 C.2       1 <0>         0.0000
      5 C5          1.5537   -1.8827    2.3736 C.ar      1 <0>         0.0000
      6 C6          3.1636   -0.8390    0.9053 C.ar      1 <0>         0.0000
      7 C7          2.8783   -1.6520    2.0022 C.ar      1 <0>         0.0000
      8 C8          0.5144   -1.3003    1.6480 C.ar      1 <0>         0.0000
      9 C9          3.8497    0.4072    6.4315 C.2       1 <0>         0.0000
     10 C10         3.9796   -1.6590    5.1033 C.2       1 <0>         0.0000
     11 C11         3.4686    1.6885    6.9299 C.2       1 <0>         0.0000
     12 C12         4.5729   -0.5764    0.4839 C.3       1 <0>         0.0000
     13 C13         3.7374   -2.7316    4.0811 C.3       1 <0>         0.0000
     14 N1          3.9181   -2.2502    2.7477 N.pl3     1 <0>         0.0000
     15 O1          2.5658    2.4255    6.4735 O.2       1 <0>         0.0000
     16 O2          4.2010    2.0938    8.0170 O.3       1 <0>         0.0000
     17 S1          3.0246   -0.2379    5.0767 S.3       1 <0>         0.0000
     18 Cl1        -1.1201   -1.5845    2.1065 Cl        1 <0>         0.0000
     19 H1          2.3358    0.3779   -0.6770 H         1 <0>         0.0000
     20 H2          0.0002   -0.0265   -0.0231 H         1 <0>         0.0000
     21 H3          5.4666   -0.2215    7.7400 H         1 <0>         0.0000
     22 H4          5.6061   -2.4443    6.3110 H         1 <0>         0.0000
     23 H5          1.3334   -2.5171    3.2296 H         1 <0>         0.0000
     24 H6          4.9614    0.3129    0.9931 H         1 <0>         0.0000
     25 H7          5.2221   -1.4278    0.7216 H         1 <0>         0.0000
     26 H8          4.6387   -0.4167   -0.5993 H         1 <0>         0.0000
     27 H9          4.4244   -3.5714    4.2325 H         1 <0>         0.0000
     28 H10         2.7190   -3.1263    4.1594 H         1 <0>         0.0000
     29 H11         4.8103   -2.3266    2.2990 H         1 <0>         0.0000
     30 H12         3.9459    2.9737    8.3679 H         1 <0>         0.0000
@<TRIPOS>BOND
     1    1    2 ar
     2    1    6 ar
     3    2    8 ar
     4    3    4 1
     5    3    9 2
     6    4   10 2
     7    5    7 ar
     8    5    8 ar
     9    6    7 ar
    10    6   12 1
    11    7   14 1
    12    8   18 1
    13    9   11 1
    14    9   17 1
    15   10   13 1
    16   10   17 1
    17   11   15 2
    18   11   16 1
    19   13   14 1
    20    1   19 1
    21    2   20 1
    22    3   21 1
    23    4   22 1
    24    5   23 1
    25   12   24 1
    26   12   25 1
    27   12   26 1
    28   13   27 1
    29   13   28 1
    30   14   29 1
    31   16   30 1
@<TRIPOS>MOLECULE
*****
   30    31     0     0     0
SMALL
NO_CHARGES

@<TRIPOS>ATOM
      1 C1          2.1242   -0.2566    0.1798 C.ar      1 <0>         0.0000
      2 C2          0.7997   -0.4873    0.5511 C.ar      1 <0>         0.0000
      3 C3          3.8881   -0.3611    7.0294 C.2       1 <0>         0.0000
      4 C4          3.4025   -1.5131    6.3458 C.2       1 <0>         0.0000
      5 C5          1.5537   -1.8827    2.3736 C.ar      1 <0>         0.0000
      6 C6          3.1636   -0.8390    0.9053 C.ar      1 <0>         0.0000
      7 C7          2.8783   -1.6520    2.0022 C.ar      1 <0>         0.0000
      8 C8          0.5144   -1.3003    1.6480 C.ar      1 <0>         0.0000
      9 C9          4.8180    0.3294    6.2837 C.2       1 <0>         0.0000
     10 C10         3.9796   -1.6590    5.1033 C.2       1 <0>         0.0000
     11 C11         5.5268    1.5218    6.6172 C.2       1 <0>         0.0000
     12 C12         4.5729   -0.5764    0.4839 C.3       1 <0>         0.0000
     13 C13         3.7374   -2.7316    4.0811 C.3       1 <0>         0.0000
     14 N1          3.9181   -2.2502    2.7477 N.pl3     1 <0>         0.0000
     15 O1          6.3660    2.1130    5.9011 O.2       1 <0>         0.0000
     16 O2          5.2113    2.0186    7.8567 O.3       1 <0>         0.0000
     17 S1          5.1022   -0.4107    4.7659 S.3       1 <0>         0.0000
     18 Cl1        -1.1201   -1.5845    2.1065 Cl        1 <0>         0.0000
     19 H1          2.3358    0.3779   -0.6770 H         1 <0>         0.0000
     20 H2          0.0002   -0.0265   -0.0231 H         1 <0>         0.0000
     21 H3          3.5685   -0.0585    8.0186 H         1 <0>         0.0000
     22 H4          2.6666   -2.1975    6.7485 H         1 <0>         0.0000
     23 H5          1.3334   -2.5171    3.2296 H         1 <0>         0.0000
     24 H6          4.9614    0.3129    0.9931 H         1 <0>         0.0000
     25 H7          5.2221   -1.4278    0.7216 H         1 <0>         0.0000
     26 H8          4.6387   -0.4167   -0.5993 H         1 <0>         0.0000
     27 H9          4.4244   -3.5714    4.2325 H         1 <0>         0.0000
     28 H10         2.7190   -3.1263    4.1594 H         1 <0>         0.0000
     29 H11         4.8103   -2.3266    2.2990 H         1 <0>         0.0000
     30 H12         5.6929    2.8392    8.0951 H         1 <0>         0.0000
@<TRIPOS>BOND
     1    1    2 ar
     2    1    6 ar
     3    2    8 ar
     4    3    4 1
     5    3    9 2
     6    4   10 2
     7    5    7 ar
     8    5    8 ar
     9    6    7 ar
    10    6   12 1
    11    7   14 1
    12    8   18 1
    13    9   11 1
    14    9   17 1
    15   10   13 1
    16   10   17 1
    17   11   15 2
    18   11   16 1
    19   13   14 1
    20    1   19 1
    21    2   20 1
    22    3   21 1
    23    4   22 1
    24    5   23 1
    25   12   24 1
    26   12   25 1
    27   12   26 1
    28   13   27 1
    29   13   28 1
    30   14   29 1
    31   16   30 1
@<TRIPOS>MOLECULE
*****
   30    31     0     0     0
SMALL
NO_CHARGES

@<TRIPOS>ATOM
      1 C1          2.1242   -0.2566    0.1798 C.ar      1 <0>         0.0000
      2 C2          0.7997   -0.4873    0.5511 C.ar      1 <0>         0.0000
      3 C3          6.5789   -2.8132    6.5818 C.2       1 <0>         0.0000
      4 C4          5.2866   -3.1851    6.1109 C.2       1 <0>         0.0000
      5 C5          1.5537   -1.8827    2.3736 C.ar      1 <0>         0.0000
      6 C6          3.1636   -0.8390    0.9053 C.ar      1 <0>         0.0000
      7 C7          2.8783   -1.6520    2.0022 C.ar      1 <0>         0.0000
      8 C8          0.5144   -1.3003    1.6480 C.ar      1 <0>         0.0000
      9 C9          7.2189   -1.9558    5.7141 C.2       1 <0>         0.0000
     10 C10         4.9879   -2.5975    4.9011 C.2       1 <0>         0.0000
     11 C11         8.5125   -1.3652    5.8296 C.2       1 <0>         0.0000
     12 C12         4.5729   -0.5764    0.4839 C.3       1 <0>         0.0000
     13 C13         3.7374   -2.7316    4.0811 C.3       1 <0>         0.0000
     14 N1          3.9181   -2.2502    2.7477 N.pl3     1 <0>         0.0000
     15 O1          9.3221   -1.5263    6.7704 O.2       1 <0>         0.0000
     16 O2          8.8408   -0.5535    4.7733 O.3       1 <0>         0.0000
     17 S1          6.2627   -1.6024    4.3381 S.3       1 <0>         0.0000
     18 Cl1        -1.1201   -1.5845    2.1065 Cl        1 <0>         0.0000
     19 H1          2.3358    0.3779   -0.6770 H         1 <0>         0.0000
     20 H2          0.0002   -0.0265   -0.0231 H         1 <0>         0.0000
     21 H3          7.0131   -3.1601    7.5110 H         1 <0>         0.0000
     22 H4          4.6130   -3.8503    6.6363 H         1 <0>         0.0000
     23 H5          1.3334   -2.5171    3.2296 H         1 <0>         0.0000
     24 H6          4.9614    0.3129    0.9931 H         1 <0>         0.0000
     25 H7          5.2221   -1.4278    0.7216 H         1 <0>         0.0000
     26 H8          4.6387   -0.4167   -0.5993 H         1 <0>         0.0000
     27 H9          3.4252   -3.7799    4.0218 H         1 <0>         0.0000
     28 H10         2.9109   -2.1710    4.5303 H         1 <0>         0.0000
     29 H11         4.8103   -2.3266    2.2990 H         1 <0>         0.0000
     30 H12         9.7291   -0.1431    4.8429 H         1 <0>         0.0000
@<TRIPOS>BOND
     1    1    2 ar
     2    1    6 ar
     3    2    8 ar
     4    3    4 1
     5    3    9 2
     6    4   10 2
     7    5    7 ar
     8    5    8 ar
     9    6    7 ar
    10    6   12 1
    11    7   14 1
    12    8   18 1
    13    9   11 1
    14    9   17 1
    15   10   13 1
    16   10   17 1
    17   11   15 2
    18   11   16 1
    19   13   14 1
    20    1   19 1
    21    2   20 1
    22    3   21 1
    23    4   22 1
    24    5   23 1
    25   12   24 1
    26   12   25 1
    27   12   26 1
    28   13   27 1
    29   13   28 1
    30   14   29 1
    31   16   30 1
@<TRIPOS>MOLECULE
*****
   30    31     0     0     0
SMALL
NO_CHARGES

@<TRIPOS>ATOM
      1 C1          1.9149   -0.9807   -0.1093 C.ar      1 <0>         0.0000
      2 C2          0.8057   -0.4648    0.5608 C.ar      1 <0>         0.0000
      3 C3          6.3683   -0.8380    6.0373 C.2       1 <0>         0.0000
      4 C4          5.8492   -1.4405    4.8551 C.2       1 <0>         0.0000
      5 C5          1.7691   -1.1360    2.6723 C.ar      1 <0>         0.0000
      6 C6          2.9512   -1.5744    0.6114 C.ar      1 <0>         0.0000
      7 C7          2.8783   -1.6520    2.0022 C.ar      1 <0>         0.0000
      8 C8          0.7328   -0.5424    1.9516 C.ar      1 <0>         0.0000
      9 C9          5.5064   -0.9653    7.1043 C.2       1 <0>         0.0000
     10 C10         4.6102   -2.0056    5.0637 C.2       1 <0>         0.0000
     11 C11         5.6644   -0.5004    8.4439 C.2       1 <0>         0.0000
     12 C12         4.1264   -2.1206   -0.1324 C.3       1 <0>         0.0000
     13 C13         3.7374   -2.7316    4.0811 C.3       1 <0>         0.0000
     14 N1          3.9181   -2.2502    2.7477 N.pl3     1 <0>         0.0000
     15 O1          4.7487   -0.1554    9.2242 O.2       1 <0>         0.0000
     16 O2          6.9721   -0.4513    8.8563 O.3       1 <0>         0.0000
     17 S1          4.0779   -1.8085    6.6792 S.3       1 <0>         0.0000
     18 Cl1        -0.6358    0.0948    2.7785 Cl        1 <0>         0.0000
     19 H1          1.9616   -0.9158   -1.1932 H         1 <0>         0.0000
     20 H2          0.0060   -0.0046   -0.0136 H         1 <0>         0.0000
     21 H3          7.3264   -0.3372    6.0970 H         1 <0>         0.0000
     22 H4          6.3621   -1.4565    3.9018 H         1 <0>         0.0000
     23 H5          1.7143   -1.1975    3.7572 H         1 <0>         0.0000
     24 H6          4.8950   -1.3479   -0.2470 H         1 <0>         0.0000
     25 H7          4.5656   -2.9760    0.3949 H         1 <0>         0.0000
     26 H8          3.8343   -2.4745   -1.1286 H         1 <0>         0.0000
     27 H9          3.9603   -3.8041    4.0856 H         1 <0>         0.0000
     28 H10         2.6788   -2.6184    4.3374 H         1 <0>         0.0000
     29 H11         4.8103   -2.3266    2.2990 H         1 <0>         0.0000
     30 H12         7.0914   -0.1335    9.7768 H         1 <0>         0.0000
@<TRIPOS>BOND
     1    1    2 ar
     2    1    6 ar
     3    2    8 ar
     4    3    4 1
     5    3    9 2
     6    4   10 2
     7    5    7 ar
     8    5    8 ar
     9    6    7 ar
    10    6   12 1
    11    7   14 1
    12    8   18 1
    13    9   11 1
    14    9   17 1
    15   10   13 1
    16   10   17 1
    17   11   15 2
    18   11   16 1
    19   13   14 1
    20    1   19 1
    21    2   20 1
    22    3   21 1
    23    4   22 1
    24    5   23 1
    25   12   24 1
    26   12   25 1
    27   12   26 1
    28   13   27 1
    29   13   28 1
    30   14   29 1
    31   16   30 1
@<TRIPOS>MOLECULE
*****
   30    31     0     0     0
SMALL
NO_CHARGES

@<TRIPOS>ATOM
      1 C1          2.1242   -0.2566    0.1798 C.ar      1 <0>         0.0000
      2 C2          0.7997   -0.4873    0.5511 C.ar      1 <0>         0.0000
      3 C3          3.8459    0.3028    6.3427 C.2       1 <0>         0.0000
      4 C4          3.3296   -0.4533    5.2510 C.2       1 <0>         0.0000
      5 C5          1.5537   -1.8827    2.3736 C.ar      1 <0>         0.0000
      6 C6          3.1636   -0.8390    0.9053 C.ar      1 <0>         0.0000
      7 C7          2.8783   -1.6520    2.0022 C.ar      1 <0>         0.0000
      8 C8          0.5144   -1.3003    1.6480 C.ar      1 <0>         0.0000
      9 C9          4.8706   -0.3537    6.9881 C.2       1 <0>         0.0000
     10 C10         3.9796   -1.6590    5.1033 C.2       1 <0>         0.0000
     11 C11         5.6368    0.0700    8.1146 C.2       1 <0>         0.0000
     12 C12         4.5729   -0.5764    0.4839 C.3       1 <0>         0.0000
     13 C13         3.7374   -2.7316    4.0811 C.3       1 <0>         0.0000
     14 N1          3.9181   -2.2502    2.7477 N.pl3     1 <0>         0.0000
     15 O1          6.1584   -0.6690    8.9796 O.2       1 <0>         0.0000
     16 O2          5.7794    1.4320    8.1994 O.3       1 <0>         0.0000
     17 S1          5.2066   -1.8754    6.2780 S.3       1 <0>         0.0000
     18 Cl1        -1.1201   -1.5845    2.1065 Cl        1 <0>         0.0000
     19 H1          2.3358    0.3779   -0.6770 H         1 <0>         0.0000
     20 H2          0.0002   -0.0265   -0.0231 H         1 <0>         0.0000
     21 H3          3.4804    1.2788    6.6362 H         1 <0>         0.0000
     22 H4          2.5221   -0.1256    4.6086 H         1 <0>         0.0000
     23 H5          1.3334   -2.5171    3.2296 H         1 <0>         0.0000
     24 H6          4.9614    0.3129    0.9931 H         1 <0>         0.0000
     25 H7          5.2221   -1.4278    0.7216 H         1 <0>         0.0000
     26 H8          4.6387   -0.4167   -0.5993 H         1 <0>         0.0000
     27 H9          4.4244   -3.5714    4.2325 H         1 <0>         0.0000
     28 H10         2.7190   -3.1263    4.1594 H         1 <0>         0.0000
     29 H11         4.8103   -2.3266    2.2990 H         1 <0>         0.0000
     30 H12         6.3056    1.7336    8.9705 H         1 <0>         0.0000
@<TRIPOS>BOND
     1    1    2 ar
     2    1    6 ar
     3    2    8 ar
     4    3    4 1
     5    3    9 2
     6    4   10 2
     7    5    7 ar
     8    5    8 ar
     9    6    7 ar
    10    6   12 1
    11    7   14 1
    12    8   18 1
    13    9   11 1
    14    9   17 1
    15   10   13 1
    16   10   17 1
    17   11   15 2
    18   11   16 1
    19   13   14 1
    20    1   19 1
    21    2   20 1
    22    3   21 1
    23    4   22 1
    24    5   23 1
    25   12   24 1
    26   12   25 1
    27   12   26 1
    28   13   27 1
    29   13   28 1
    30   14   29 1
    31   16   30 1
@<TRIPOS>MOLECULE
*****
   30    31     0     0     0
SMALL
NO_CHARGES

@<TRIPOS>ATOM
      1 C1          2.0640   -0.6096   -0.0196 C.ar      1 <0>         0.0000
      2 C2          0.8013   -0.4764    0.5577 C.ar      1 <0>         0.0000
      3 C3          2.0821   -6.0598    4.8003 C.2       1 <0>         0.0000
      4 C4          2.5568   -4.7681    5.1695 C.2       1 <0>         0.0000
      5 C5          1.6155   -1.5187    2.5795 C.ar      1 <0>         0.0000
      6 C6          3.1026   -1.1975    0.7027 C.ar      1 <0>         0.0000
      7 C7          2.8783   -1.6520    2.0022 C.ar      1 <0>         0.0000
      8 C8          0.5770   -0.9309    1.8572 C.ar      1 <0>         0.0000
      9 C9          2.3047   -6.3317    3.4684 C.2       1 <0>         0.0000
     10 C10         3.1244   -4.1019    4.1055 C.2       1 <0>         0.0000
     11 C11         1.9780   -7.5062    2.7272 C.2       1 <0>         0.0000
     12 C12         4.4445   -1.3293    0.0588 C.3       1 <0>         0.0000
     13 C13         3.7374   -2.7316    4.0811 C.3       1 <0>         0.0000
     14 N1          3.9181   -2.2502    2.7477 N.pl3     1 <0>         0.0000
     15 O1          1.7013   -7.5631    1.5079 O.2       1 <0>         0.0000
     16 O2          1.9869   -8.6513    3.4829 O.3       1 <0>         0.0000
     17 S1          3.0831   -5.0328    2.6688 S.3       1 <0>         0.0000
     18 Cl1        -0.9812   -0.7659    2.5696 Cl        1 <0>         0.0000
     19 H1          2.2282   -0.2528   -1.0331 H         1 <0>         0.0000
     20 H2          0.0017   -0.0159   -0.0167 H         1 <0>         0.0000
     21 H3          1.6019   -6.7512    5.4812 H         1 <0>         0.0000
     22 H4          2.4839   -4.3523    6.1665 H         1 <0>         0.0000
     23 H5          1.4427   -1.8738    3.5933 H         1 <0>         0.0000
     24 H6          5.0518   -0.4401    0.2628 H         1 <0>         0.0000
     25 H7          4.9781   -2.2112    0.4333 H         1 <0>         0.0000
     26 H8          4.3520   -1.4487   -1.0275 H         1 <0>         0.0000
     27 H9          3.1035   -2.0154    4.6152 H         1 <0>         0.0000
     28 H10         4.7158   -2.7300    4.5731 H         1 <0>         0.0000
     29 H11         4.8103   -2.3266    2.2990 H         1 <0>         0.0000
     30 H12         1.7643   -9.4650    2.9820 H         1 <0>         0.0000
@<TRIPOS>BOND
     1    1    2 ar
     2    1    6 ar
     3    2    8 ar
     4    3    4 1
     5    3    9 2
     6    4   10 2
     7    5    7 ar
     8    5    8 ar
     9    6    7 ar
    10    6   12 1
    11    7   14 1
    12    8   18 1
    13    9   11 1
    14    9   17 1
    15   10   13 1
    16   10   17 1
    17   11   15 2
    18   11   16 1
    19   13   14 1
    20    1   19 1
    21    2   20 1
    22    3   21 1
    23    4   22 1
    24    5   23 1
    25   12   24 1
    26   12   25 1
    27   12   26 1
    28   13   27 1
    29   13   28 1
    30   14   29 1
    31   16   30 1
@<TRIPOS>MOLECULE
*****
   30    31     0     0     0
SMALL
NO_CHARGES

@<TRIPOS>ATOM
      1 C1          2.0640   -0.6096   -0.0196 C.ar      1 <0>         0.0000
      2 C2          0.8013   -0.4764    0.5577 C.ar      1 <0>         0.0000
      3 C3          6.9659   -3.5252    5.8926 C.2       1 <0>         0.0000
      4 C4          5.8439   -2.6994    5.5935 C.2       1 <0>         0.0000
      5 C5          1.6155   -1.5187    2.5795 C.ar      1 <0>         0.0000
      6 C6          3.1026   -1.1975    0.7027 C.ar      1 <0>         0.0000
      7 C7          2.8783   -1.6520    2.0022 C.ar      1 <0>         0.0000
      8 C8          0.5770   -0.9309    1.8572 C.ar      1 <0>         0.0000
      9 C9          6.9482   -4.7015    5.1761 C.2       1 <0>         0.0000
     10 C10         5.0115   -3.2761    4.6594 C.2       1 <0>         0.0000
     11 C11         7.8863   -5.7763    5.1954 C.2       1 <0>         0.0000
     12 C12         4.4445   -1.3293    0.0588 C.3       1 <0>         0.0000
     13 C13         3.7374   -2.7316    4.0811 C.3       1 <0>         0.0000
     14 N1          3.9181   -2.2502    2.7477 N.pl3     1 <0>         0.0000
     15 O1          7.8535   -6.7786    5.9443 O.2       1 <0>         0.0000
     16 O2          8.8979   -5.6374    4.2789 O.3       1 <0>         0.0000
     17 S1          5.5832   -4.8069    4.1476 S.3       1 <0>         0.0000
     18 Cl1        -0.9812   -0.7659    2.5696 Cl        1 <0>         0.0000
     19 H1          2.2282   -0.2528   -1.0331 H         1 <0>         0.0000
     20 H2          0.0017   -0.0159   -0.0167 H         1 <0>         0.0000
     21 H3          7.7441   -3.2651    6.5990 H         1 <0>         0.0000
     22 H4          5.6605   -1.7316    6.0429 H         1 <0>         0.0000
     23 H5          1.4427   -1.8738    3.5933 H         1 <0>         0.0000
     24 H6          5.0518   -0.4401    0.2628 H         1 <0>         0.0000
     25 H7          4.9781   -2.2112    0.4333 H         1 <0>         0.0000
     26 H8          4.3520   -1.4487   -1.0275 H         1 <0>         0.0000
     27 H9          2.9622   -3.5053    4.0582 H         1 <0>         0.0000
     28 H10         3.3532   -1.9040    4.6866 H         1 <0>         0.0000
     29 H11         4.8103   -2.3266    2.2990 H         1 <0>         0.0000
     30 H12         9.5481   -6.3720    4.2837 H         1 <0>         0.0000
@<TRIPOS>BOND
     1    1    2 ar
     2    1    6 ar
     3    2    8 ar
     4    3    4 1
     5    3    9 2
     6    4   10 2
     7    5    7 ar
     8    5    8 ar
     9    6    7 ar
    10    6   12 1
    11    7   14 1
    12    8   18 1
    13    9   11 1
    14    9   17 1
    15   10   13 1
    16   10   17 1
    17   11   15 2
    18   11   16 1
    19   13   14 1
    20    1   19 1
    21    2   20 1
    22    3   21 1
    23    4   22 1
    24    5   23 1
    25   12   24 1
    26   12   25 1
    27   12   26 1
    28   13   27 1
    29   13   28 1
    30   14   29 1
    31   16   30 1
@<TRIPOS>MOLECULE
*****
   30    31     0     0     0
SMALL
NO_CHARGES

@<TRIPOS>ATOM
      1 C1          1.9149   -0.9807   -0.1093 C.ar      1 <0>         0.0000
      2 C2          0.8057   -0.4648    0.5608 C.ar      1 <0>         0.0000
      3 C3          5.3665   -0.5823    6.7383 C.2       1 <0>         0.0000
      4 C4          4.2518   -1.0387    5.9772 C.2       1 <0>         0.0000
      5 C5          1.7691   -1.1360    2.6723 C.ar      1 <0>         0.0000
      6 C6          2.9512   -1.5744    0.6114 C.ar      1 <0>         0.0000
      7 C7          2.8783   -1.6520    2.0022 C.ar      1 <0>         0.0000
      8 C8          0.7328   -0.5424    1.9516 C.ar      1 <0>         0.0000
      9 C9          6.5343   -1.2177    6.3777 C.2       1 <0>         0.0000
     10 C10         4.6102   -2.0056    5.0637 C.2       1 <0>         0.0000
     11 C11         7.8496   -1.0390    6.9007 C.2       1 <0>         0.0000
     12 C12         4.1264   -2.1206   -0.1324 C.3       1 <0>         0.0000
     13 C13         3.7374   -2.7316    4.0811 C.3       1 <0>         0.0000
     14 N1          3.9181   -2.2502    2.7477 N.pl3     1 <0>         0.0000
     15 O1          8.1458   -0.6981    8.0680 O.2       1 <0>         0.0000
     16 O2          8.8415   -1.2811    5.9841 O.3       1 <0>         0.0000
     17 S1          6.2845   -2.3594    5.1262 S.3       1 <0>         0.0000
     18 Cl1        -0.6358    0.0948    2.7785 Cl        1 <0>         0.0000
     19 H1          1.9616   -0.9158   -1.1932 H         1 <0>         0.0000
     20 H2          0.0060   -0.0046   -0.0136 H         1 <0>         0.0000
     21 H3          5.3095    0.1743    7.5107 H         1 <0>         0.0000
     22 H4          3.2397   -0.6735    6.0968 H         1 <0>         0.0000
     23 H5          1.7143   -1.1975    3.7572 H         1 <0>         0.0000
     24 H6          4.8950   -1.3479   -0.2470 H         1 <0>         0.0000
     25 H7          4.5656   -2.9760    0.3949 H         1 <0>         0.0000
     26 H8          3.8343   -2.4745   -1.1286 H         1 <0>         0.0000
     27 H9          3.9603   -3.8041    4.0856 H         1 <0>         0.0000
     28 H10         2.6788   -2.6184    4.3374 H         1 <0>         0.0000
     29 H11         4.8103   -2.3266    2.2990 H         1 <0>         0.0000
     30 H12         9.7500   -1.1617    6.3343 H         1 <0>         0.0000
@<TRIPOS>BOND
     1    1    2 ar
     2    1    6 ar
     3    2    8 ar
     4    3    4 1
     5    3    9 2
     6    4   10 2
     7    5    7 ar
     8    5    8 ar
     9    6    7 ar
    10    6   12 1
    11    7   14 1
    12    8   18 1
    13    9   11 1
    14    9   17 1
    15   10   13 1
    16   10   17 1
    17   11   15 2
    18   11   16 1
    19   13   14 1
    20    1   19 1
    21    2   20 1
    22    3   21 1
    23    4   22 1
    24    5   23 1
    25   12   24 1
    26   12   25 1
    27   12   26 1
    28   13   27 1
    29   13   28 1
    30   14   29 1
    31   16   30 1
@<TRIPOS>MOLECULE
*****
   30    31     0     0     0
SMALL
NO_CHARGES

@<TRIPOS>ATOM
      1 C1          2.1242   -0.2566    0.1798 C.ar      1 <0>         0.0000
      2 C2          0.7997   -0.4873    0.5511 C.ar      1 <0>         0.0000
      3 C3          6.8354   -1.7306    6.0137 C.2       1 <0>         0.0000
      4 C4          5.6919   -1.4542    5.2098 C.2       1 <0>         0.0000
      5 C5          1.5537   -1.8827    2.3736 C.ar      1 <0>         0.0000
      6 C6          3.1636   -0.8390    0.9053 C.ar      1 <0>         0.0000
      7 C7          2.8783   -1.6520    2.0022 C.ar      1 <0>         0.0000
      8 C8          0.5144   -1.3003    1.6480 C.ar      1 <0>         0.0000
      9 C9          6.9616   -3.0744    6.2892 C.2       1 <0>         0.0000
     10 C10         4.9879   -2.5975    4.9011 C.2       1 <0>         0.0000
     11 C11         7.9644   -3.7416    7.0540 C.2       1 <0>         0.0000
     12 C12         4.5729   -0.5764    0.4839 C.3       1 <0>         0.0000
     13 C13         3.7374   -2.7316    4.0811 C.3       1 <0>         0.0000
     14 N1          3.9181   -2.2502    2.7477 N.pl3     1 <0>         0.0000
     15 O1          7.7801   -4.4280    8.0842 O.2       1 <0>         0.0000
     16 O2          9.2329   -3.5760    6.5578 O.3       1 <0>         0.0000
     17 S1          5.7051   -3.9965    5.5798 S.3       1 <0>         0.0000
     18 Cl1        -1.1201   -1.5845    2.1065 Cl        1 <0>         0.0000
     19 H1          2.3358    0.3779   -0.6770 H         1 <0>         0.0000
     20 H2          0.0002   -0.0265   -0.0231 H         1 <0>         0.0000
     21 H3          7.5274   -0.9780    6.3699 H         1 <0>         0.0000
     22 H4          5.4040   -0.4652    4.8765 H         1 <0>         0.0000
     23 H5          1.3334   -2.5171    3.2296 H         1 <0>         0.0000
     24 H6          4.9614    0.3129    0.9931 H         1 <0>         0.0000
     25 H7          5.2221   -1.4278    0.7216 H         1 <0>         0.0000
     26 H8          4.6387   -0.4167   -0.5993 H         1 <0>         0.0000
     27 H9          3.4252   -3.7799    4.0218 H         1 <0>         0.0000
     28 H10         2.9109   -2.1710    4.5303 H         1 <0>         0.0000
     29 H11         4.8103   -2.3266    2.2990 H         1 <0>         0.0000
     30 H12         9.9298   -4.0318    7.0763 H         1 <0>         0.0000
@<TRIPOS>BOND
     1    1    2 ar
     2    1    6 ar
     3    2    8 ar
     4    3    4 1
     5    3    9 2
     6    4   10 2
     7    5    7 ar
     8    5    8 ar
     9    6    7 ar
    10    6   12 1
    11    7   14 1
    12    8   18 1
    13    9   11 1
    14    9   17 1
    15   10   13 1
    16   10   17 1
    17   11   15 2
    18   11   16 1
    19   13   14 1
    20    1   19 1
    21    2   20 1
    22    3   21 1
    23    4   22 1
    24    5   23 1
    25   12   24 1
    26   12   25 1
    27   12   26 1
    28   13   27 1
    29   13   28 1
    30   14   29 1
    31   16   30 1
@<TRIPOS>MOLECULE
*****
   30    31     0     0     0
SMALL
NO_CHARGES

@<TRIPOS>ATOM
      1 C1          2.1242   -0.2566    0.1798 C.ar      1 <0>         0.0000
      2 C2          0.7997   -0.4873    0.5511 C.ar      1 <0>         0.0000
      3 C3          4.3085    0.3993    6.1319 C.2       1 <0>         0.0000
      4 C4          4.0663   -0.2973    4.9127 C.2       1 <0>         0.0000
      5 C5          1.5537   -1.8827    2.3736 C.ar      1 <0>         0.0000
      6 C6          3.1636   -0.8390    0.9053 C.ar      1 <0>         0.0000
      7 C7          2.8783   -1.6520    2.0022 C.ar      1 <0>         0.0000
      8 C8          0.5144   -1.3003    1.6480 C.ar      1 <0>         0.0000
      9 C9          4.3974   -0.4563    7.2078 C.2       1 <0>         0.0000
     10 C10         3.9796   -1.6590    5.1033 C.2       1 <0>         0.0000
     11 C11         4.6304   -0.1473    8.5811 C.2       1 <0>         0.0000
     12 C12         4.5729   -0.5764    0.4839 C.3       1 <0>         0.0000
     13 C13         3.7374   -2.7316    4.0811 C.3       1 <0>         0.0000
     14 N1          3.9181   -2.2502    2.7477 N.pl3     1 <0>         0.0000
     15 O1          5.2053   -0.8766    9.4202 O.2       1 <0>         0.0000
     16 O2          4.1545    1.0843    8.9542 O.3       1 <0>         0.0000
     17 S1          4.1894   -2.0923    6.7466 S.3       1 <0>         0.0000
     18 Cl1        -1.1201   -1.5845    2.1065 Cl        1 <0>         0.0000
     19 H1          2.3358    0.3779   -0.6770 H         1 <0>         0.0000
     20 H2          0.0002   -0.0265   -0.0231 H         1 <0>         0.0000
     21 H3          4.4112    1.4742    6.2106 H         1 <0>         0.0000
     22 H4          3.9619    0.1802    3.9467 H         1 <0>         0.0000
     23 H5          1.3334   -2.5171    3.2296 H         1 <0>         0.0000
     24 H6          4.9614    0.3129    0.9931 H         1 <0>         0.0000
     25 H7          5.2221   -1.4278    0.7216 H         1 <0>         0.0000
     26 H8          4.6387   -0.4167   -0.5993 H         1 <0>         0.0000
     27 H9          4.4244   -3.5714    4.2325 H         1 <0>         0.0000
     28 H10         2.7190   -3.1263    4.1594 H         1 <0>         0.0000
     29 H11         4.8103   -2.3266    2.2990 H         1 <0>         0.0000
     30 H12         4.3106    1.3066    9.8968 H         1 <0>         0.0000
@<TRIPOS>BOND
     1    1    2 ar
     2    1    6 ar
     3    2    8 ar
     4    3    4 1
     5    3    9 2
     6    4   10 2
     7    5    7 ar
     8    5    8 ar
     9    6    7 ar
    10    6   12 1
    11    7   14 1
    12    8   18 1
    13    9   11 1
    14    9   17 1
    15   10   13 1
    16   10   17 1
    17   11   15 2
    18   11   16 1
    19   13   14 1
    20    1   19 1
    21    2   20 1
    22    3   21 1
    23    4   22 1
    24    5   23 1
    25   12   24 1
    26   12   25 1
    27   12   26 1
    28   13   27 1
    29   13   28 1
    30   14   29 1
    31   16   30 1
@<TRIPOS>MOLECULE
*****
   30    31     0     0     0
SMALL
NO_CHARGES

@<TRIPOS>ATOM
      1 C1          2.1242   -0.2566    0.1798 C.ar      1 <0>         0.0000
      2 C2          0.7997   -0.4873    0.5511 C.ar      1 <0>         0.0000
      3 C3          6.4394   -1.2783    6.2996 C.2       1 <0>         0.0000
      4 C4          5.9651   -2.1437    5.2718 C.2       1 <0>         0.0000
      5 C5          1.5537   -1.8827    2.3736 C.ar      1 <0>         0.0000
      6 C6          3.1636   -0.8390    0.9053 C.ar      1 <0>         0.0000
      7 C7          2.8783   -1.6520    2.0022 C.ar      1 <0>         0.0000
      8 C8          0.5144   -1.3003    1.6480 C.ar      1 <0>         0.0000
      9 C9          5.4293   -0.5117    6.8377 C.2       1 <0>         0.0000
     10 C10         4.6102   -2.0056    5.0637 C.2       1 <0>         0.0000
     11 C11         5.5013    0.4635    7.8765 C.2       1 <0>         0.0000
     12 C12         4.5729   -0.5764    0.4839 C.3       1 <0>         0.0000
     13 C13         3.7374   -2.7316    4.0811 C.3       1 <0>         0.0000
     14 N1          3.9181   -2.2502    2.7477 N.pl3     1 <0>         0.0000
     15 O1          4.5927    0.7565    8.6858 O.2       1 <0>         0.0000
     16 O2          6.7117    1.1064    7.9418 O.3       1 <0>         0.0000
     17 S1          3.9162   -0.8364    6.1046 S.3       1 <0>         0.0000
     18 Cl1        -1.1201   -1.5845    2.1065 Cl        1 <0>         0.0000
     19 H1          2.3358    0.3779   -0.6770 H         1 <0>         0.0000
     20 H2          0.0002   -0.0265   -0.0231 H         1 <0>         0.0000
     21 H3          7.4709   -1.2243    6.6242 H         1 <0>         0.0000
     22 H4          6.5895   -2.8315    4.7157 H         1 <0>         0.0000
     23 H5          1.3334   -2.5171    3.2296 H         1 <0>         0.0000
     24 H6          4.9614    0.3129    0.9931 H         1 <0>         0.0000
     25 H7          5.2221   -1.4278    0.7216 H         1 <0>         0.0000
     26 H8          4.6387   -0.4167   -0.5993 H         1 <0>         0.0000
     27 H9          3.9603   -3.8041    4.0856 H         1 <0>         0.0000
     28 H10         2.6788   -2.6184    4.3374 H         1 <0>         0.0000
     29 H11         4.8103   -2.3266    2.2990 H         1 <0>         0.0000
     30 H12         6.7717    1.7787    8.6537 H         1 <0>         0.0000
@<TRIPOS>BOND
     1    1    2 ar
     2    1    6 ar
     3    2    8 ar
     4    3    4 1
     5    3    9 2
     6    4   10 2
     7    5    7 ar
     8    5    8 ar
     9    6    7 ar
    10    6   12 1
    11    7   14 1
    12    8   18 1
    13    9   11 1
    14    9   17 1
    15   10   13 1
    16   10   17 1
    17   11   15 2
    18   11   16 1
    19   13   14 1
    20    1   19 1
    21    2   20 1
    22    3   21 1
    23    4   22 1
    24    5   23 1
    25   12   24 1
    26   12   25 1
    27   12   26 1
    28   13   27 1
    29   13   28 1
    30   14   29 1
    31   16   30 1
@<TRIPOS>MOLECULE
*****
   30    31     0     0     0
SMALL
NO_CHARGES

@<TRIPOS>ATOM
      1 C1          2.0640   -0.6096   -0.0196 C.ar      1 <0>         0.0000
      2 C2          0.8013   -0.4764    0.5577 C.ar      1 <0>         0.0000
      3 C3          1.6955   -5.8921    4.5001 C.2       1 <0>         0.0000
      4 C4          1.9415   -4.5013    4.6880 C.2       1 <0>         0.0000
      5 C5          1.6155   -1.5187    2.5795 C.ar      1 <0>         0.0000
      6 C6          3.1026   -1.1975    0.7027 C.ar      1 <0>         0.0000
      7 C7          2.8783   -1.6520    2.0022 C.ar      1 <0>         0.0000
      8 C8          0.5770   -0.9309    1.8572 C.ar      1 <0>         0.0000
      9 C9          2.6994   -6.5027    3.7810 C.2       1 <0>         0.0000
     10 C10         3.1244   -4.1019    4.1055 C.2       1 <0>         0.0000
     11 C11         2.8175   -7.8700    3.3909 C.2       1 <0>         0.0000
     12 C12         4.4445   -1.3293    0.0588 C.3       1 <0>         0.0000
     13 C13         3.7374   -2.7316    4.0811 C.3       1 <0>         0.0000
     14 N1          3.9181   -2.2502    2.7477 N.pl3     1 <0>         0.0000
     15 O1          2.0169   -8.5103    2.6730 O.2       1 <0>         0.0000
     16 O2          3.9409   -8.4852    3.8829 O.3       1 <0>         0.0000
     17 S1          3.9322   -5.4008    3.3358 S.3       1 <0>         0.0000
     18 Cl1        -0.9812   -0.7659    2.5696 Cl        1 <0>         0.0000
     19 H1          2.2282   -0.2528   -1.0331 H         1 <0>         0.0000
     20 H2          0.0017   -0.0159   -0.0167 H         1 <0>         0.0000
     21 H3          0.8242   -6.4140    4.8753 H         1 <0>         0.0000
     22 H4          1.2817   -3.8312    5.2243 H         1 <0>         0.0000
     23 H5          1.4427   -1.8738    3.5933 H         1 <0>         0.0000
     24 H6          5.0518   -0.4401    0.2628 H         1 <0>         0.0000
     25 H7          4.9781   -2.2112    0.4333 H         1 <0>         0.0000
     26 H8          4.3520   -1.4487   -1.0275 H         1 <0>         0.0000
     27 H9          3.1035   -2.0154    4.6152 H         1 <0>         0.0000
     28 H10         4.7158   -2.7300    4.5731 H         1 <0>         0.0000
     29 H11         4.8103   -2.3266    2.2990 H         1 <0>         0.0000
     30 H12         4.0318   -9.4258    3.6195 H         1 <0>         0.0000
@<TRIPOS>BOND
     1    1    2 ar
     2    1    6 ar
     3    2    8 ar
     4    3    4 1
     5    3    9 2
     6    4   10 2
     7    5    7 ar
     8    5    8 ar
     9    6    7 ar
    10    6   12 1
    11    7   14 1
    12    8   18 1
    13    9   11 1
    14    9   17 1
    15   10   13 1
    16   10   17 1
    17   11   15 2
    18   11   16 1
    19   13   14 1
    20    1   19 1
    21    2   20 1
    22    3   21 1
    23    4   22 1
    24    5   23 1
    25   12   24 1
    26   12   25 1
    27   12   26 1
    28   13   27 1
    29   13   28 1
    30   14   29 1
    31   16   30 1
@<TRIPOS>MOLECULE
*****
   30    31     0     0     0
SMALL
NO_CHARGES

@<TRIPOS>ATOM
      1 C1          1.9149   -0.9807   -0.1093 C.ar      1 <0>         0.0000
      2 C2          0.8057   -0.4648    0.5608 C.ar      1 <0>         0.0000
      3 C3          5.4376   -1.0226    7.0005 C.2       1 <0>         0.0000
      4 C4          4.3677   -1.7419    6.3939 C.2       1 <0>         0.0000
      5 C5          1.7691   -1.1360    2.6723 C.ar      1 <0>         0.0000
      6 C6          2.9512   -1.5744    0.6114 C.ar      1 <0>         0.0000
      7 C7          2.8783   -1.6520    2.0022 C.ar      1 <0>         0.0000
      8 C8          0.7328   -0.5424    1.9516 C.ar      1 <0>         0.0000
      9 C9          6.4572   -0.7641    6.1111 C.2       1 <0>         0.0000
     10 C10         4.6102   -2.0056    5.0637 C.2       1 <0>         0.0000
     11 C11         7.6866   -0.0751    6.3334 C.2       1 <0>         0.0000
     12 C12         4.1264   -2.1206   -0.1324 C.3       1 <0>         0.0000
     13 C13         3.7374   -2.7316    4.0811 C.3       1 <0>         0.0000
     14 N1          3.9181   -2.2502    2.7477 N.pl3     1 <0>         0.0000
     15 O1          8.3299    0.5890    5.4898 O.2       1 <0>         0.0000
     16 O2          8.1550   -0.1903    7.6178 O.3       1 <0>         0.0000
     17 S1          6.1227   -1.3874    4.5516 S.3       1 <0>         0.0000
     18 Cl1        -0.6358    0.0948    2.7785 Cl        1 <0>         0.0000
     19 H1          1.9616   -0.9158   -1.1932 H         1 <0>         0.0000
     20 H2          0.0060   -0.0046   -0.0136 H         1 <0>         0.0000
     21 H3          5.4540   -0.7128    8.0378 H         1 <0>         0.0000
     22 H4          3.4670   -2.0484    6.9108 H         1 <0>         0.0000
     23 H5          1.7143   -1.1975    3.7572 H         1 <0>         0.0000
     24 H6          4.8950   -1.3479   -0.2470 H         1 <0>         0.0000
     25 H7          4.5656   -2.9760    0.3949 H         1 <0>         0.0000
     26 H8          3.8343   -2.4745   -1.1286 H         1 <0>         0.0000
     27 H9          3.9603   -3.8041    4.0856 H         1 <0>         0.0000
     28 H10         2.6788   -2.6184    4.3374 H         1 <0>         0.0000
     29 H11         4.8103   -2.3266    2.2990 H         1 <0>         0.0000
     30 H12         8.9997    0.2809    7.7812 H         1 <0>         0.0000
@<TRIPOS>BOND
     1    1    2 ar
     2    1    6 ar
     3    2    8 ar
     4    3    4 1
     5    3    9 2
     6    4   10 2
     7    5    7 ar
     8    5    8 ar
     9    6    7 ar
    10    6   12 1
    11    7   14 1
    12    8   18 1
    13    9   11 1
    14    9   17 1
    15   10   13 1
    16   10   17 1
    17   11   15 2
    18   11   16 1
    19   13   14 1
    20    1   19 1
    21    2   20 1
    22    3   21 1
    23    4   22 1
    24    5   23 1
    25   12   24 1
    26   12   25 1
    27   12   26 1
    28   13   27 1
    29   13   28 1
    30   14   29 1
    31   16   30 1
@<TRIPOS>MOLECULE
*****
   30    31     0     0     0
SMALL
NO_CHARGES

@<TRIPOS>ATOM
      1 C1          1.9149   -0.9807   -0.1093 C.ar      1 <0>         0.0000
      2 C2          0.8057   -0.4648    0.5608 C.ar      1 <0>         0.0000
      3 C3          2.7371   -6.3709    3.7832 C.2       1 <0>         0.0000
      4 C4          3.6073   -5.2668    3.5509 C.2       1 <0>         0.0000
      5 C5          1.7691   -1.1360    2.6723 C.ar      1 <0>         0.0000
      6 C6          2.9512   -1.5744    0.6114 C.ar      1 <0>         0.0000
      7 C7          2.8783   -1.6520    2.0022 C.ar      1 <0>         0.0000
      8 C8          0.7328   -0.5424    1.9516 C.ar      1 <0>         0.0000
      9 C9          1.6224   -6.0080    4.5066 C.2       1 <0>         0.0000
     10 C10         3.1244   -4.1019    4.1055 C.2       1 <0>         0.0000
     11 C11         0.5298   -6.8189    4.9355 C.2       1 <0>         0.0000
     12 C12         4.1264   -2.1206   -0.1324 C.3       1 <0>         0.0000
     13 C13         3.7374   -2.7316    4.0811 C.3       1 <0>         0.0000
     14 N1          3.9181   -2.2502    2.7477 N.pl3     1 <0>         0.0000
     15 O1         -0.6752   -6.6623    4.6355 O.2       1 <0>         0.0000
     16 O2          0.9041   -7.8550    5.7535 O.3       1 <0>         0.0000
     17 S1          1.6279   -4.3420    4.9026 S.3       1 <0>         0.0000
     18 Cl1        -0.6358    0.0948    2.7785 Cl        1 <0>         0.0000
     19 H1          1.9616   -0.9158   -1.1932 H         1 <0>         0.0000
     20 H2          0.0060   -0.0046   -0.0136 H         1 <0>         0.0000
     21 H3          2.9239   -7.3790    3.4352 H         1 <0>         0.0000
     22 H4          4.5395   -5.3283    3.0037 H         1 <0>         0.0000
     23 H5          1.7143   -1.1975    3.7572 H         1 <0>         0.0000
     24 H6          4.8950   -1.3479   -0.2470 H         1 <0>         0.0000
     25 H7          4.5656   -2.9760    0.3949 H         1 <0>         0.0000
     26 H8          3.8343   -2.4745   -1.1286 H         1 <0>         0.0000
     27 H9          3.1035   -2.0154    4.6152 H         1 <0>         0.0000
     28 H10         4.7158   -2.7300    4.5731 H         1 <0>         0.0000
     29 H11         4.8103   -2.3266    2.2990 H         1 <0>         0.0000
     30 H12         0.1598   -8.4193    6.0533 H         1 <0>         0.0000
@<TRIPOS>BOND
     1    1    2 ar
     2    1    6 ar
     3    2    8 ar
     4    3    4 1
     5    3    9 2
     6    4   10 2
     7    5    7 ar
     8    5    8 ar
     9    6    7 ar
    10    6   12 1
    11    7   14 1
    12    8   18 1
    13    9   11 1
    14    9   17 1
    15   10   13 1
    16   10   17 1
    17   11   15 2
    18   11   16 1
    19   13   14 1
    20    1   19 1
    21    2   20 1
    22    3   21 1
    23    4   22 1
    24    5   23 1
    25   12   24 1
    26   12   25 1
    27   12   26 1
    28   13   27 1
    29   13   28 1
    30   14   29 1
    31   16   30 1
@<TRIPOS>MOLECULE
*****
   30    31     0     0     0
SMALL
NO_CHARGES

@<TRIPOS>ATOM
      1 C1          2.1242   -0.2566    0.1798 C.ar      1 <0>         0.0000
      2 C2          0.7997   -0.4873    0.5511 C.ar      1 <0>         0.0000
      3 C3          6.1962   -1.5148    6.6903 C.2       1 <0>         0.0000
      4 C4          5.5791   -2.5232    5.8951 C.2       1 <0>         0.0000
      5 C5          1.5537   -1.8827    2.3736 C.ar      1 <0>         0.0000
      6 C6          3.1636   -0.8390    0.9053 C.ar      1 <0>         0.0000
      7 C7          2.8783   -1.6520    2.0022 C.ar      1 <0>         0.0000
      8 C8          0.5144   -1.3003    1.6480 C.ar      1 <0>         0.0000
      9 C9          5.6758   -0.2649    6.4363 C.2       1 <0>         0.0000
     10 C10         4.6102   -2.0056    5.0637 C.2       1 <0>         0.0000
     11 C11         6.0261    0.9874    7.0234 C.2       1 <0>         0.0000
     12 C12         4.5729   -0.5764    0.4839 C.3       1 <0>         0.0000
     13 C13         3.7374   -2.7316    4.0811 C.3       1 <0>         0.0000
     14 N1          3.9181   -2.2502    2.7477 N.pl3     1 <0>         0.0000
     15 O1          5.9589    2.1104    6.4750 O.2       1 <0>         0.0000
     16 O2          6.4714    0.8810    8.3168 O.3       1 <0>         0.0000
     17 S1          4.4481   -0.3104    5.2434 S.3       1 <0>         0.0000
     18 Cl1        -1.1201   -1.5845    2.1065 Cl        1 <0>         0.0000
     19 H1          2.3358    0.3779   -0.6770 H         1 <0>         0.0000
     20 H2          0.0002   -0.0265   -0.0231 H         1 <0>         0.0000
     21 H3          6.9823   -1.7018    7.4110 H         1 <0>         0.0000
     22 H4          5.8357   -3.5743    5.9342 H         1 <0>         0.0000
     23 H5          1.3334   -2.5171    3.2296 H         1 <0>         0.0000
     24 H6          4.9614    0.3129    0.9931 H         1 <0>         0.0000
     25 H7          5.2221   -1.4278    0.7216 H         1 <0>         0.0000
     26 H8          4.6387   -0.4167   -0.5993 H         1 <0>         0.0000
     27 H9          3.9603   -3.8041    4.0856 H         1 <0>         0.0000
     28 H10         2.6788   -2.6184    4.3374 H         1 <0>         0.0000
     29 H11         4.8103   -2.3266    2.2990 H         1 <0>         0.0000
     30 H12         6.7140    1.7370    8.7299 H         1 <0>         0.0000
@<TRIPOS>BOND
     1    1    2 ar
     2    1    6 ar
     3    2    8 ar
     4    3    4 1
     5    3    9 2
     6    4   10 2
     7    5    7 ar
     8    5    8 ar
     9    6    7 ar
    10    6   12 1
    11    7   14 1
    12    8   18 1
    13    9   11 1
    14    9   17 1
    15   10   13 1
    16   10   17 1
    17   11   15 2
    18   11   16 1
    19   13   14 1
    20    1   19 1
    21    2   20 1
    22    3   21 1
    23    4   22 1
    24    5   23 1
    25   12   24 1
    26   12   25 1
    27   12   26 1
    28   13   27 1
    29   13   28 1
    30   14   29 1
    31   16   30 1
@<TRIPOS>MOLECULE
*****
   30    31     0     0     0
SMALL
NO_CHARGES

@<TRIPOS>ATOM
      1 C1          2.1242   -0.2566    0.1798 C.ar      1 <0>         0.0000
      2 C2          0.7997   -0.4873    0.5511 C.ar      1 <0>         0.0000
      3 C3          5.6097   -0.3458    6.3476 C.2       1 <0>         0.0000
      4 C4          4.6377   -0.6592    5.3539 C.2       1 <0>         0.0000
      5 C5          1.5537   -1.8827    2.3736 C.ar      1 <0>         0.0000
      6 C6          3.1636   -0.8390    0.9053 C.ar      1 <0>         0.0000
      7 C7          2.8783   -1.6520    2.0022 C.ar      1 <0>         0.0000
      8 C8          0.5144   -1.3003    1.6480 C.ar      1 <0>         0.0000
      9 C9          6.2878   -1.4645    6.7791 C.2       1 <0>         0.0000
     10 C10         4.6102   -2.0056    5.0637 C.2       1 <0>         0.0000
     11 C11         7.3249   -1.5628    7.7539 C.2       1 <0>         0.0000
     12 C12         4.5729   -0.5764    0.4839 C.3       1 <0>         0.0000
     13 C13         3.7374   -2.7316    4.0811 C.3       1 <0>         0.0000
     14 N1          3.9181   -2.2502    2.7477 N.pl3     1 <0>         0.0000
     15 O1          7.5608   -2.5455    8.4922 O.2       1 <0>         0.0000
     16 O2          8.1049   -0.4372    7.8397 O.3       1 <0>         0.0000
     17 S1          5.7525   -2.8855    5.9874 S.3       1 <0>         0.0000
     18 Cl1        -1.1201   -1.5845    2.1065 Cl        1 <0>         0.0000
     19 H1          2.3358    0.3779   -0.6770 H         1 <0>         0.0000
     20 H2          0.0002   -0.0265   -0.0231 H         1 <0>         0.0000
     21 H3          5.7981    0.6518    6.7239 H         1 <0>         0.0000
     22 H4          3.9934    0.0694    4.8784 H         1 <0>         0.0000
     23 H5          1.3334   -2.5171    3.2296 H         1 <0>         0.0000
     24 H6          4.9614    0.3129    0.9931 H         1 <0>         0.0000
     25 H7          5.2221   -1.4278    0.7216 H         1 <0>         0.0000
     26 H8          4.6387   -0.4167   -0.5993 H         1 <0>         0.0000
     27 H9          3.9603   -3.8041    4.0856 H         1 <0>         0.0000
     28 H10         2.6788   -2.6184    4.3374 H         1 <0>         0.0000
     29 H11         4.8103   -2.3266    2.2990 H         1 <0>         0.0000
     30 H12         8.8218   -0.4951    8.5069 H         1 <0>         0.0000
@<TRIPOS>BOND
     1    1    2 ar
     2    1    6 ar
     3    2    8 ar
     4    3    4 1
     5    3    9 2
     6    4   10 2
     7    5    7 ar
     8    5    8 ar
     9    6    7 ar
    10    6   12 1
    11    7   14 1
    12    8   18 1
    13    9   11 1
    14    9   17 1
    15   10   13 1
    16   10   17 1
    17   11   15 2
    18   11   16 1
    19   13   14 1
    20    1   19 1
    21    2   20 1
    22    3   21 1
    23    4   22 1
    24    5   23 1
    25   12   24 1
    26   12   25 1
    27   12   26 1
    28   13   27 1
    29   13   28 1
    30   14   29 1
    31   16   30 1
@<TRIPOS>MOLECULE
*****
   30    31     0     0     0
SMALL
NO_CHARGES

@<TRIPOS>ATOM
      1 C1          1.9149   -0.9807   -0.1093 C.ar      1 <0>         0.0000
      2 C2          0.8057   -0.4648    0.5608 C.ar      1 <0>         0.0000
      3 C3          6.4939   -5.3017    4.4429 C.2       1 <0>         0.0000
      4 C4          5.5451   -4.5498    3.6914 C.2       1 <0>         0.0000
      5 C5          1.7691   -1.1360    2.6723 C.ar      1 <0>         0.0000
      6 C6          2.9512   -1.5744    0.6114 C.ar      1 <0>         0.0000
      7 C7          2.8783   -1.6520    2.0022 C.ar      1 <0>         0.0000
      8 C8          0.7328   -0.5424    1.9516 C.ar      1 <0>         0.0000
      9 C9          6.4612   -4.9841    5.7829 C.2       1 <0>         0.0000
     10 C10         4.8233   -3.6862    4.4858 C.2       1 <0>         0.0000
     11 C11         7.2481   -5.5141    6.8485 C.2       1 <0>         0.0000
     12 C12         4.1264   -2.1206   -0.1324 C.3       1 <0>         0.0000
     13 C13         3.7374   -2.7316    4.0811 C.3       1 <0>         0.0000
     14 N1          3.9181   -2.2502    2.7477 N.pl3     1 <0>         0.0000
     15 O1          6.9682   -6.5071    7.5570 O.2       1 <0>         0.0000
     16 O2          8.4133   -4.8228    7.0657 O.3       1 <0>         0.0000
     17 S1          5.2903   -3.7839    6.1304 S.3       1 <0>         0.0000
     18 Cl1        -0.6358    0.0948    2.7785 Cl        1 <0>         0.0000
     19 H1          1.9616   -0.9158   -1.1932 H         1 <0>         0.0000
     20 H2          0.0060   -0.0046   -0.0136 H         1 <0>         0.0000
     21 H3          7.1646   -6.0373    4.0173 H         1 <0>         0.0000
     22 H4          5.4023   -4.6410    2.6220 H         1 <0>         0.0000
     23 H5          1.7143   -1.1975    3.7572 H         1 <0>         0.0000
     24 H6          4.8950   -1.3479   -0.2470 H         1 <0>         0.0000
     25 H7          4.5656   -2.9760    0.3949 H         1 <0>         0.0000
     26 H8          3.8343   -2.4745   -1.1286 H         1 <0>         0.0000
     27 H9          2.7569   -3.2171    4.1345 H         1 <0>         0.0000
     28 H10         3.7077   -1.8643    4.7490 H         1 <0>         0.0000
     29 H11         4.8103   -2.3266    2.2990 H         1 <0>         0.0000
     30 H12         8.9621   -5.1801    7.7961 H         1 <0>         0.0000
@<TRIPOS>BOND
     1    1    2 ar
     2    1    6 ar
     3    2    8 ar
     4    3    4 1
     5    3    9 2
     6    4   10 2
     7    5    7 ar
     8    5    8 ar
     9    6    7 ar
    10    6   12 1
    11    7   14 1
    12    8   18 1
    13    9   11 1
    14    9   17 1
    15   10   13 1
    16   10   17 1
    17   11   15 2
    18   11   16 1
    19   13   14 1
    20    1   19 1
    21    2   20 1
    22    3   21 1
    23    4   22 1
    24    5   23 1
    25   12   24 1
    26   12   25 1
    27   12   26 1
    28   13   27 1
    29   13   28 1
    30   14   29 1
    31   16   30 1
@<TRIPOS>MOLECULE
*****
   30    31     0     0     0
SMALL
NO_CHARGES

@<TRIPOS>ATOM
      1 C1          2.1242   -0.2566    0.1798 C.ar      1 <0>         0.0000
      2 C2          0.7997   -0.4873    0.5511 C.ar      1 <0>         0.0000
      3 C3          2.7371   -6.3709    3.7832 C.2       1 <0>         0.0000
      4 C4          3.6073   -5.2668    3.5509 C.2       1 <0>         0.0000
      5 C5          1.5537   -1.8827    2.3736 C.ar      1 <0>         0.0000
      6 C6          3.1636   -0.8390    0.9053 C.ar      1 <0>         0.0000
      7 C7          2.8783   -1.6520    2.0022 C.ar      1 <0>         0.0000
      8 C8          0.5144   -1.3003    1.6480 C.ar      1 <0>         0.0000
      9 C9          1.6224   -6.0080    4.5066 C.2       1 <0>         0.0000
     10 C10         3.1244   -4.1019    4.1055 C.2       1 <0>         0.0000
     11 C11         0.5298   -6.8189    4.9355 C.2       1 <0>         0.0000
     12 C12         4.5729   -0.5764    0.4839 C.3       1 <0>         0.0000
     13 C13         3.7374   -2.7316    4.0811 C.3       1 <0>         0.0000
     14 N1          3.9181   -2.2502    2.7477 N.pl3     1 <0>         0.0000
     15 O1         -0.6518   -6.4439    5.1080 O.2       1 <0>         0.0000
     16 O2          0.8744   -8.1274    5.1628 O.3       1 <0>         0.0000
     17 S1          1.6279   -4.3420    4.9026 S.3       1 <0>         0.0000
     18 Cl1        -1.1201   -1.5845    2.1065 Cl        1 <0>         0.0000
     19 H1          2.3358    0.3779   -0.6770 H         1 <0>         0.0000
     20 H2          0.0002   -0.0265   -0.0231 H         1 <0>         0.0000
     21 H3          2.9239   -7.3790    3.4352 H         1 <0>         0.0000
     22 H4          4.5395   -5.3283    3.0037 H         1 <0>         0.0000
     23 H5          1.3334   -2.5171    3.2296 H         1 <0>         0.0000
     24 H6          4.9614    0.3129    0.9931 H         1 <0>         0.0000
     25 H7          5.2221   -1.4278    0.7216 H         1 <0>         0.0000
     26 H8          4.6387   -0.4167   -0.5993 H         1 <0>         0.0000
     27 H9          3.1035   -2.0154    4.6152 H         1 <0>         0.0000
     28 H10         4.7158   -2.7300    4.5731 H         1 <0>         0.0000
     29 H11         4.8103   -2.3266    2.2990 H         1 <0>         0.0000
     30 H12         0.1296   -8.6937    5.4574 H         1 <0>         0.0000
@<TRIPOS>BOND
     1    1    2 ar
     2    1    6 ar
     3    2    8 ar
     4    3    4 1
     5    3    9 2
     6    4   10 2
     7    5    7 ar
     8    5    8 ar
     9    6    7 ar
    10    6   12 1
    11    7   14 1
    12    8   18 1
    13    9   11 1
    14    9   17 1
    15   10   13 1
    16   10   17 1
    17   11   15 2
    18   11   16 1
    19   13   14 1
    20    1   19 1
    21    2   20 1
    22    3   21 1
    23    4   22 1
    24    5   23 1
    25   12   24 1
    26   12   25 1
    27   12   26 1
    28   13   27 1
    29   13   28 1
    30   14   29 1
    31   16   30 1
@<TRIPOS>MOLECULE
*****
   30    31     0     0     0
SMALL
NO_CHARGES

@<TRIPOS>ATOM
      1 C1          2.1242   -0.2566    0.1798 C.ar      1 <0>         0.0000
      2 C2          0.7997   -0.4873    0.5511 C.ar      1 <0>         0.0000
      3 C3          2.8981    0.4113    6.0181 C.2       1 <0>         0.0000
      4 C4          3.5230   -0.2983    4.9522 C.2       1 <0>         0.0000
      5 C5          1.5537   -1.8827    2.3736 C.ar      1 <0>         0.0000
      6 C6          3.1636   -0.8390    0.9053 C.ar      1 <0>         0.0000
      7 C7          2.8783   -1.6520    2.0022 C.ar      1 <0>         0.0000
      8 C8          0.5144   -1.3003    1.6480 C.ar      1 <0>         0.0000
      9 C9          2.1862   -0.4252    6.8494 C.2       1 <0>         0.0000
     10 C10         3.2651   -1.6504    5.0096 C.2       1 <0>         0.0000
     11 C11         1.4309   -0.0992    8.0150 C.2       1 <0>         0.0000
     12 C12         4.5729   -0.5764    0.4839 C.3       1 <0>         0.0000
     13 C13         3.7374   -2.7316    4.0811 C.3       1 <0>         0.0000
     14 N1          3.9181   -2.2502    2.7477 N.pl3     1 <0>         0.0000
     15 O1          0.2078   -0.2997    8.1888 O.2       1 <0>         0.0000
     16 O2          2.1775    0.4878    9.0054 O.3       1 <0>         0.0000
     17 S1          2.2730   -2.0591    6.3442 S.3       1 <0>         0.0000
     18 Cl1        -1.1201   -1.5845    2.1065 Cl        1 <0>         0.0000
     19 H1          2.3358    0.3779   -0.6770 H         1 <0>         0.0000
     20 H2          0.0002   -0.0265   -0.0231 H         1 <0>         0.0000
     21 H3          2.9699    1.4818    6.1634 H         1 <0>         0.0000
     22 H4          4.1305    0.1635    4.1842 H         1 <0>         0.0000
     23 H5          1.3334   -2.5171    3.2296 H         1 <0>         0.0000
     24 H6          4.9614    0.3129    0.9931 H         1 <0>         0.0000
     25 H7          5.2221   -1.4278    0.7216 H         1 <0>         0.0000
     26 H8          4.6387   -0.4167   -0.5993 H         1 <0>         0.0000
     27 H9          4.6929   -3.1441    4.4232 H         1 <0>         0.0000
     28 H10         3.0207   -3.5587    4.0442 H         1 <0>         0.0000
     29 H11         4.8103   -2.3266    2.2990 H         1 <0>         0.0000
     30 H12         1.6672    0.7152    9.8118 H         1 <0>         0.0000
@<TRIPOS>BOND
     1    1    2 ar
     2    1    6 ar
     3    2    8 ar
     4    3    4 1
     5    3    9 2
     6    4   10 2
     7    5    7 ar
     8    5    8 ar
     9    6    7 ar
    10    6   12 1
    11    7   14 1
    12    8   18 1
    13    9   11 1
    14    9   17 1
    15   10   13 1
    16   10   17 1
    17   11   15 2
    18   11   16 1
    19   13   14 1
    20    1   19 1
    21    2   20 1
    22    3   21 1
    23    4   22 1
    24    5   23 1
    25   12   24 1
    26   12   25 1
    27   12   26 1
    28   13   27 1
    29   13   28 1
    30   14   29 1
    31   16   30 1
@<TRIPOS>MOLECULE
*****
   30    31     0     0     0
SMALL
NO_CHARGES

@<TRIPOS>ATOM
      1 C1          2.1242   -0.2566    0.1798 C.ar      1 <0>         0.0000
      2 C2          0.7997   -0.4873    0.5511 C.ar      1 <0>         0.0000
      3 C3          7.1946   -3.4806    5.4306 C.2       1 <0>         0.0000
      4 C4          6.2097   -2.6255    4.8571 C.2       1 <0>         0.0000
      5 C5          1.5537   -1.8827    2.3736 C.ar      1 <0>         0.0000
      6 C6          3.1636   -0.8390    0.9053 C.ar      1 <0>         0.0000
      7 C7          2.8783   -1.6520    2.0022 C.ar      1 <0>         0.0000
      8 C8          0.5144   -1.3003    1.6480 C.ar      1 <0>         0.0000
      9 C9          6.7117   -4.7520    5.6497 C.2       1 <0>         0.0000
     10 C10         5.0115   -3.2761    4.6594 C.2       1 <0>         0.0000
     11 C11         7.3839   -5.8826    6.2024 C.2       1 <0>         0.0000
     12 C12         4.5729   -0.5764    0.4839 C.3       1 <0>         0.0000
     13 C13         3.7374   -2.7316    4.0811 C.3       1 <0>         0.0000
     14 N1          3.9181   -2.2502    2.7477 N.pl3     1 <0>         0.0000
     15 O1          8.0337   -6.7444    5.5687 O.2       1 <0>         0.0000
     16 O2          7.2691   -5.9757    7.5665 O.3       1 <0>         0.0000
     17 S1          5.0771   -4.9109    5.1646 S.3       1 <0>         0.0000
     18 Cl1        -1.1201   -1.5845    2.1065 Cl        1 <0>         0.0000
     19 H1          2.3358    0.3779   -0.6770 H         1 <0>         0.0000
     20 H2          0.0002   -0.0265   -0.0231 H         1 <0>         0.0000
     21 H3          8.2052   -3.1738    5.6690 H         1 <0>         0.0000
     22 H4          6.3760   -1.5862    4.6035 H         1 <0>         0.0000
     23 H5          1.3334   -2.5171    3.2296 H         1 <0>         0.0000
     24 H6          4.9614    0.3129    0.9931 H         1 <0>         0.0000
     25 H7          5.2221   -1.4278    0.7216 H         1 <0>         0.0000
     26 H8          4.6387   -0.4167   -0.5993 H         1 <0>         0.0000
     27 H9          2.9622   -3.5053    4.0582 H         1 <0>         0.0000
     28 H10         3.3532   -1.9040    4.6866 H         1 <0>         0.0000
     29 H11         4.8103   -2.3266    2.2990 H         1 <0>         0.0000
     30 H12         7.7288   -6.7497    7.9564 H         1 <0>         0.0000
@<TRIPOS>BOND
     1    1    2 ar
     2    1    6 ar
     3    2    8 ar
     4    3    4 1
     5    3    9 2
     6    4   10 2
     7    5    7 ar
     8    5    8 ar
     9    6    7 ar
    10    6   12 1
    11    7   14 1
    12    8   18 1
    13    9   11 1
    14    9   17 1
    15   10   13 1
    16   10   17 1
    17   11   15 2
    18   11   16 1
    19   13   14 1
    20    1   19 1
    21    2   20 1
    22    3   21 1
    23    4   22 1
    24    5   23 1
    25   12   24 1
    26   12   25 1
    27   12   26 1
    28   13   27 1
    29   13   28 1
    30   14   29 1
    31   16   30 1
@<TRIPOS>MOLECULE
*****
   30    31     0     0     0
SMALL
NO_CHARGES

@<TRIPOS>ATOM
      1 C1          1.9149   -0.9807   -0.1093 C.ar      1 <0>         0.0000
      2 C2          0.8057   -0.4648    0.5608 C.ar      1 <0>         0.0000
      3 C3          1.6955   -5.8921    4.5001 C.2       1 <0>         0.0000
      4 C4          1.9415   -4.5013    4.6880 C.2       1 <0>         0.0000
      5 C5          1.7691   -1.1360    2.6723 C.ar      1 <0>         0.0000
      6 C6          2.9512   -1.5744    0.6114 C.ar      1 <0>         0.0000
      7 C7          2.8783   -1.6520    2.0022 C.ar      1 <0>         0.0000
      8 C8          0.7328   -0.5424    1.9516 C.ar      1 <0>         0.0000
      9 C9          2.6994   -6.5027    3.7810 C.2       1 <0>         0.0000
     10 C10         3.1244   -4.1019    4.1055 C.2       1 <0>         0.0000
     11 C11         2.8175   -7.8700    3.3909 C.2       1 <0>         0.0000
     12 C12         4.1264   -2.1206   -0.1324 C.3       1 <0>         0.0000
     13 C13         3.7374   -2.7316    4.0811 C.3       1 <0>         0.0000
     14 N1          3.9181   -2.2502    2.7477 N.pl3     1 <0>         0.0000
     15 O1          2.8660   -8.8598    4.1553 O.2       1 <0>         0.0000
     16 O2          2.8779   -8.0489    2.0319 O.3       1 <0>         0.0000
     17 S1          3.9322   -5.4008    3.3358 S.3       1 <0>         0.0000
     18 Cl1        -0.6358    0.0948    2.7785 Cl        1 <0>         0.0000
     19 H1          1.9616   -0.9158   -1.1932 H         1 <0>         0.0000
     20 H2          0.0060   -0.0046   -0.0136 H         1 <0>         0.0000
     21 H3          0.8242   -6.4140    4.8753 H         1 <0>         0.0000
     22 H4          1.2817   -3.8312    5.2243 H         1 <0>         0.0000
     23 H5          1.7143   -1.1975    3.7572 H         1 <0>         0.0000
     24 H6          4.8950   -1.3479   -0.2470 H         1 <0>         0.0000
     25 H7          4.5656   -2.9760    0.3949 H         1 <0>         0.0000
     26 H8          3.8343   -2.4745   -1.1286 H         1 <0>         0.0000
     27 H9          3.1035   -2.0154    4.6152 H         1 <0>         0.0000
     28 H10         4.7158   -2.7300    4.5731 H         1 <0>         0.0000
     29 H11         4.8103   -2.3266    2.2990 H         1 <0>         0.0000
     30 H12         2.9584   -8.9860    1.7533 H         1 <0>         0.0000
@<TRIPOS>BOND
     1    1    2 ar
     2    1    6 ar
     3    2    8 ar
     4    3    4 1
     5    3    9 2
     6    4   10 2
     7    5    7 ar
     8    5    8 ar
     9    6    7 ar
    10    6   12 1
    11    7   14 1
    12    8   18 1
    13    9   11 1
    14    9   17 1
    15   10   13 1
    16   10   17 1
    17   11   15 2
    18   11   16 1
    19   13   14 1
    20    1   19 1
    21    2   20 1
    22    3   21 1
    23    4   22 1
    24    5   23 1
    25   12   24 1
    26   12   25 1
    27   12   26 1
    28   13   27 1
    29   13   28 1
    30   14   29 1
    31   16   30 1
@<TRIPOS>MOLECULE
*****
   30    31     0     0     0
SMALL
NO_CHARGES

@<TRIPOS>ATOM
      1 C1          2.1242   -0.2566    0.1798 C.ar      1 <0>         0.0000
      2 C2          0.7997   -0.4873    0.5511 C.ar      1 <0>         0.0000
      3 C3          2.3505   -6.2033    3.4829 C.2       1 <0>         0.0000
      4 C4          2.9920   -5.0001    3.0694 C.2       1 <0>         0.0000
      5 C5          1.5537   -1.8827    2.3736 C.ar      1 <0>         0.0000
      6 C6          3.1636   -0.8390    0.9053 C.ar      1 <0>         0.0000
      7 C7          2.8783   -1.6520    2.0022 C.ar      1 <0>         0.0000
      8 C8          0.5144   -1.3003    1.6480 C.ar      1 <0>         0.0000
      9 C9          2.0171   -6.1790    4.8193 C.2       1 <0>         0.0000
     10 C10         3.1244   -4.1019    4.1055 C.2       1 <0>         0.0000
     11 C11         1.3692   -7.1827    5.5993 C.2       1 <0>         0.0000
     12 C12         4.5729   -0.5764    0.4839 C.3       1 <0>         0.0000
     13 C13         3.7374   -2.7316    4.0811 C.3       1 <0>         0.0000
     14 N1          3.9181   -2.2502    2.7477 N.pl3     1 <0>         0.0000
     15 O1          1.8347   -7.7541    6.6109 O.2       1 <0>         0.0000
     16 O2          0.1163   -7.5071    5.1437 O.3       1 <0>         0.0000
     17 S1          2.4771   -4.7100    5.5696 S.3       1 <0>         0.0000
     18 Cl1        -1.1201   -1.5845    2.1065 Cl        1 <0>         0.0000
     19 H1          2.3358    0.3779   -0.6770 H         1 <0>         0.0000
     20 H2          0.0002   -0.0265   -0.0231 H         1 <0>         0.0000
     21 H3          2.1461   -7.0418    2.8292 H         1 <0>         0.0000
     22 H4          3.3372   -4.8072    2.0615 H         1 <0>         0.0000
     23 H5          1.3334   -2.5171    3.2296 H         1 <0>         0.0000
     24 H6          4.9614    0.3129    0.9931 H         1 <0>         0.0000
     25 H7          5.2221   -1.4278    0.7216 H         1 <0>         0.0000
     26 H8          4.6387   -0.4167   -0.5993 H         1 <0>         0.0000
     27 H9          3.1035   -2.0154    4.6152 H         1 <0>         0.0000
     28 H10         4.7158   -2.7300    4.5731 H         1 <0>         0.0000
     29 H11         4.8103   -2.3266    2.2990 H         1 <0>         0.0000
     30 H12        -0.3381   -8.1960    5.6739 H         1 <0>         0.0000
@<TRIPOS>BOND
     1    1    2 ar
     2    1    6 ar
     3    2    8 ar
     4    3    4 1
     5    3    9 2
     6    4   10 2
     7    5    7 ar
     8    5    8 ar
     9    6    7 ar
    10    6   12 1
    11    7   14 1
    12    8   18 1
    13    9   11 1
    14    9   17 1
    15   10   13 1
    16   10   17 1
    17   11   15 2
    18   11   16 1
    19   13   14 1
    20    1   19 1
    21    2   20 1
    22    3   21 1
    23    4   22 1
    24    5   23 1
    25   12   24 1
    26   12   25 1
    27   12   26 1
    28   13   27 1
    29   13   28 1
    30   14   29 1
    31   16   30 1
@<TRIPOS>MOLECULE
*****
   30    31     0     0     0
SMALL
NO_CHARGES

@<TRIPOS>ATOM
      1 C1          2.1242   -0.2566    0.1798 C.ar      1 <0>         0.0000
      2 C2          0.7997   -0.4873    0.5511 C.ar      1 <0>         0.0000
      3 C3          4.3682   -0.5396    7.1030 C.2       1 <0>         0.0000
      4 C4          4.1694   -1.7960    6.4610 C.2       1 <0>         0.0000
      5 C5          1.5537   -1.8827    2.3736 C.ar      1 <0>         0.0000
      6 C6          3.1636   -0.8390    0.9053 C.ar      1 <0>         0.0000
      7 C7          2.8783   -1.6520    2.0022 C.ar      1 <0>         0.0000
      8 C8          0.5144   -1.3003    1.6480 C.ar      1 <0>         0.0000
      9 C9          4.3230    0.5098    6.2117 C.2       1 <0>         0.0000
     10 C10         3.9796   -1.6590    5.1033 C.2       1 <0>         0.0000
     11 C11         4.4749    1.9059    6.4634 C.2       1 <0>         0.0000
     12 C12         4.5729   -0.5764    0.4839 C.3       1 <0>         0.0000
     13 C13         3.7374   -2.7316    4.0811 C.3       1 <0>         0.0000
     14 N1          3.9181   -2.2502    2.7477 N.pl3     1 <0>         0.0000
     15 O1          4.4252    2.8243    5.6146 O.2       1 <0>         0.0000
     16 O2          4.6931    2.2040    7.7848 O.3       1 <0>         0.0000
     17 S1          4.0418   -0.0209    4.6081 S.3       1 <0>         0.0000
     18 Cl1        -1.1201   -1.5845    2.1065 Cl        1 <0>         0.0000
     19 H1          2.3358    0.3779   -0.6770 H         1 <0>         0.0000
     20 H2          0.0002   -0.0265   -0.0231 H         1 <0>         0.0000
     21 H3          4.5358   -0.4170    8.1656 H         1 <0>         0.0000
     22 H4          4.1662   -2.7500    6.9729 H         1 <0>         0.0000
     23 H5          1.3334   -2.5171    3.2296 H         1 <0>         0.0000
     24 H6          4.9614    0.3129    0.9931 H         1 <0>         0.0000
     25 H7          5.2221   -1.4278    0.7216 H         1 <0>         0.0000
     26 H8          4.6387   -0.4167   -0.5993 H         1 <0>         0.0000
     27 H9          4.4244   -3.5714    4.2325 H         1 <0>         0.0000
     28 H10         2.7190   -3.1263    4.1594 H         1 <0>         0.0000
     29 H11         4.8103   -2.3266    2.2990 H         1 <0>         0.0000
     30 H12         4.7980    3.1619    7.9685 H         1 <0>         0.0000
@<TRIPOS>BOND
     1    1    2 ar
     2    1    6 ar
     3    2    8 ar
     4    3    4 1
     5    3    9 2
     6    4   10 2
     7    5    7 ar
     8    5    8 ar
     9    6    7 ar
    10    6   12 1
    11    7   14 1
    12    8   18 1
    13    9   11 1
    14    9   17 1
    15   10   13 1
    16   10   17 1
    17   11   15 2
    18   11   16 1
    19   13   14 1
    20    1   19 1
    21    2   20 1
    22    3   21 1
    23    4   22 1
    24    5   23 1
    25   12   24 1
    26   12   25 1
    27   12   26 1
    28   13   27 1
    29   13   28 1
    30   14   29 1
    31   16   30 1
@<TRIPOS>MOLECULE
*****
   30    31     0     0     0
SMALL
NO_CHARGES

@<TRIPOS>ATOM
      1 C1          1.9149   -0.9807   -0.1093 C.ar      1 <0>         0.0000
      2 C2          0.8057   -0.4648    0.5608 C.ar      1 <0>         0.0000
      3 C3          1.1875   -5.4026    4.9163 C.2       1 <0>         0.0000
      4 C4          2.0894   -4.3531    5.2559 C.2       1 <0>         0.0000
      5 C5          1.7691   -1.1360    2.6723 C.ar      1 <0>         0.0000
      6 C6          2.9512   -1.5744    0.6114 C.ar      1 <0>         0.0000
      7 C7          2.8783   -1.6520    2.0022 C.ar      1 <0>         0.0000
      8 C8          0.7328   -0.5424    1.9516 C.ar      1 <0>         0.0000
      9 C9          1.1654   -5.6475    3.5610 C.2       1 <0>         0.0000
     10 C10         2.7226   -3.8361    4.1470 C.2       1 <0>         0.0000
     11 C11         0.4002   -6.6098    2.8370 C.2       1 <0>         0.0000
     12 C12         4.1264   -2.1206   -0.1324 C.3       1 <0>         0.0000
     13 C13         3.7374   -2.7316    4.0811 C.3       1 <0>         0.0000
     14 N1          3.9181   -2.2502    2.7477 N.pl3     1 <0>         0.0000
     15 O1          0.7313   -7.1722    1.7690 O.2       1 <0>         0.0000
     16 O2         -0.8053   -6.9043    3.4224 O.3       1 <0>         0.0000
     17 S1          2.2290   -4.6148    2.7040 S.3       1 <0>         0.0000
     18 Cl1        -0.6358    0.0948    2.7785 Cl        1 <0>         0.0000
     19 H1          1.9616   -0.9158   -1.1932 H         1 <0>         0.0000
     20 H2          0.0060   -0.0046   -0.0136 H         1 <0>         0.0000
     21 H3          0.5870   -5.9474    5.6339 H         1 <0>         0.0000
     22 H4          2.2623   -3.9986    6.2642 H         1 <0>         0.0000
     23 H5          1.7143   -1.1975    3.7572 H         1 <0>         0.0000
     24 H6          4.8950   -1.3479   -0.2470 H         1 <0>         0.0000
     25 H7          4.5656   -2.9760    0.3949 H         1 <0>         0.0000
     26 H8          3.8343   -2.4745   -1.1286 H         1 <0>         0.0000
     27 H9          3.4292   -1.8863    4.7060 H         1 <0>         0.0000
     28 H10         4.7114   -3.0704    4.4496 H         1 <0>         0.0000
     29 H11         4.8103   -2.3266    2.2990 H         1 <0>         0.0000
     30 H12        -1.3389   -7.5658    2.9325 H         1 <0>         0.0000
@<TRIPOS>BOND
     1    1    2 ar
     2    1    6 ar
     3    2    8 ar
     4    3    4 1
     5    3    9 2
     6    4   10 2
     7    5    7 ar
     8    5    8 ar
     9    6    7 ar
    10    6   12 1
    11    7   14 1
    12    8   18 1
    13    9   11 1
    14    9   17 1
    15   10   13 1
    16   10   17 1
    17   11   15 2
    18   11   16 1
    19   13   14 1
    20    1   19 1
    21    2   20 1
    22    3   21 1
    23    4   22 1
    24    5   23 1
    25   12   24 1
    26   12   25 1
    27   12   26 1
    28   13   27 1
    29   13   28 1
    30   14   29 1
    31   16   30 1
@<TRIPOS>MOLECULE
*****
   30    31     0     0     0
SMALL
NO_CHARGES

@<TRIPOS>ATOM
      1 C1          1.9149   -0.9807   -0.1093 C.ar      1 <0>         0.0000
      2 C2          0.8057   -0.4648    0.5608 C.ar      1 <0>         0.0000
      3 C3          2.3505   -6.2033    3.4829 C.2       1 <0>         0.0000
      4 C4          2.9920   -5.0001    3.0694 C.2       1 <0>         0.0000
      5 C5          1.7691   -1.1360    2.6723 C.ar      1 <0>         0.0000
      6 C6          2.9512   -1.5744    0.6114 C.ar      1 <0>         0.0000
      7 C7          2.8783   -1.6520    2.0022 C.ar      1 <0>         0.0000
      8 C8          0.7328   -0.5424    1.9516 C.ar      1 <0>         0.0000
      9 C9          2.0171   -6.1790    4.8193 C.2       1 <0>         0.0000
     10 C10         3.1244   -4.1019    4.1055 C.2       1 <0>         0.0000
     11 C11         1.3692   -7.1827    5.5993 C.2       1 <0>         0.0000
     12 C12         4.1264   -2.1206   -0.1324 C.3       1 <0>         0.0000
     13 C13         3.7374   -2.7316    4.0811 C.3       1 <0>         0.0000
     14 N1          3.9181   -2.2502    2.7477 N.pl3     1 <0>         0.0000
     15 O1          0.2842   -7.0635    6.2116 O.2       1 <0>         0.0000
     16 O2          2.0535   -8.3712    5.6407 O.3       1 <0>         0.0000
     17 S1          2.4771   -4.7100    5.5696 S.3       1 <0>         0.0000
     18 Cl1        -0.6358    0.0948    2.7785 Cl        1 <0>         0.0000
     19 H1          1.9616   -0.9158   -1.1932 H         1 <0>         0.0000
     20 H2          0.0060   -0.0046   -0.0136 H         1 <0>         0.0000
     21 H3          2.1461   -7.0418    2.8292 H         1 <0>         0.0000
     22 H4          3.3372   -4.8072    2.0615 H         1 <0>         0.0000
     23 H5          1.7143   -1.1975    3.7572 H         1 <0>         0.0000
     24 H6          4.8950   -1.3479   -0.2470 H         1 <0>         0.0000
     25 H7          4.5656   -2.9760    0.3949 H         1 <0>         0.0000
     26 H8          3.8343   -2.4745   -1.1286 H         1 <0>         0.0000
     27 H9          3.1035   -2.0154    4.6152 H         1 <0>         0.0000
     28 H10         4.7158   -2.7300    4.5731 H         1 <0>         0.0000
     29 H11         4.8103   -2.3266    2.2990 H         1 <0>         0.0000
     30 H12         1.6157   -9.0685    6.1741 H         1 <0>         0.0000
@<TRIPOS>BOND
     1    1    2 ar
     2    1    6 ar
     3    2    8 ar
     4    3    4 1
     5    3    9 2
     6    4   10 2
     7    5    7 ar
     8    5    8 ar
     9    6    7 ar
    10    6   12 1
    11    7   14 1
    12    8   18 1
    13    9   11 1
    14    9   17 1
    15   10   13 1
    16   10   17 1
    17   11   15 2
    18   11   16 1
    19   13   14 1
    20    1   19 1
    21    2   20 1
    22    3   21 1
    23    4   22 1
    24    5   23 1
    25   12   24 1
    26   12   25 1
    27   12   26 1
    28   13   27 1
    29   13   28 1
    30   14   29 1
    31   16   30 1
@<TRIPOS>MOLECULE
*****
   30    31     0     0     0
SMALL
NO_CHARGES

@<TRIPOS>ATOM
      1 C1          1.9149   -0.9807   -0.1093 C.ar      1 <0>         0.0000
      2 C2          0.8057   -0.4648    0.5608 C.ar      1 <0>         0.0000
      3 C3          4.7885    0.2208    6.2055 C.2       1 <0>         0.0000
      4 C4          4.8332   -0.5803    5.0280 C.2       1 <0>         0.0000
      5 C5          1.7691   -1.1360    2.6723 C.ar      1 <0>         0.0000
      6 C6          2.9512   -1.5744    0.6114 C.ar      1 <0>         0.0000
      7 C7          2.8783   -1.6520    2.0022 C.ar      1 <0>         0.0000
      8 C8          0.7328   -0.5424    1.9516 C.ar      1 <0>         0.0000
      9 C9          3.9023   -0.2759    7.1358 C.2       1 <0>         0.0000
     10 C10         3.9796   -1.6590    5.1033 C.2       1 <0>         0.0000
     11 C11         3.5785    0.2367    8.4273 C.2       1 <0>         0.0000
     12 C12         4.1264   -2.1206   -0.1324 C.3       1 <0>         0.0000
     13 C13         3.7374   -2.7316    4.0811 C.3       1 <0>         0.0000
     14 N1          3.9181   -2.2502    2.7477 N.pl3     1 <0>         0.0000
     15 O1          4.1457   -0.0510    9.5053 O.2       1 <0>         0.0000
     16 O2          2.5353    1.1279    8.4175 O.3       1 <0>         0.0000
     17 S1          3.1290   -1.7025    6.5889 S.3       1 <0>         0.0000
     18 Cl1        -0.6358    0.0948    2.7785 Cl        1 <0>         0.0000
     19 H1          1.9616   -0.9158   -1.1932 H         1 <0>         0.0000
     20 H2          0.0060   -0.0046   -0.0136 H         1 <0>         0.0000
     21 H3          5.3785    1.1157    6.3576 H         1 <0>         0.0000
     22 H4          5.4615   -0.3723    4.1711 H         1 <0>         0.0000
     23 H5          1.7143   -1.1975    3.7572 H         1 <0>         0.0000
     24 H6          4.8950   -1.3479   -0.2470 H         1 <0>         0.0000
     25 H7          4.5656   -2.9760    0.3949 H         1 <0>         0.0000
     26 H8          3.8343   -2.4745   -1.1286 H         1 <0>         0.0000
     27 H9          4.4244   -3.5714    4.2325 H         1 <0>         0.0000
     28 H10         2.7190   -3.1263    4.1594 H         1 <0>         0.0000
     29 H11         4.8103   -2.3266    2.2990 H         1 <0>         0.0000
     30 H12         2.3053    1.4870    9.3009 H         1 <0>         0.0000
@<TRIPOS>BOND
     1    1    2 ar
     2    1    6 ar
     3    2    8 ar
     4    3    4 1
     5    3    9 2
     6    4   10 2
     7    5    7 ar
     8    5    8 ar
     9    6    7 ar
    10    6   12 1
    11    7   14 1
    12    8   18 1
    13    9   11 1
    14    9   17 1
    15   10   13 1
    16   10   17 1
    17   11   15 2
    18   11   16 1
    19   13   14 1
    20    1   19 1
    21    2   20 1
    22    3   21 1
    23    4   22 1
    24    5   23 1
    25   12   24 1
    26   12   25 1
    27   12   26 1
    28   13   27 1
    29   13   28 1
    30   14   29 1
    31   16   30 1
@<TRIPOS>MOLECULE
*****
   30    31     0     0     0
SMALL
NO_CHARGES

@<TRIPOS>ATOM
      1 C1          1.9149   -0.9807   -0.1093 C.ar      1 <0>         0.0000
      2 C2          0.8057   -0.4648    0.5608 C.ar      1 <0>         0.0000
      3 C3          6.3694   -4.8987    5.7275 C.2       1 <0>         0.0000
      4 C4          5.3411   -3.9125    5.7422 C.2       1 <0>         0.0000
      5 C5          1.7691   -1.1360    2.6723 C.ar      1 <0>         0.0000
      6 C6          2.9512   -1.5744    0.6114 C.ar      1 <0>         0.0000
      7 C7          2.8783   -1.6520    2.0022 C.ar      1 <0>         0.0000
      8 C8          0.7328   -0.5424    1.9516 C.ar      1 <0>         0.0000
      9 C9          6.5982   -5.3888    4.4606 C.2       1 <0>         0.0000
     10 C10         4.8233   -3.6862    4.4858 C.2       1 <0>         0.0000
     11 C11         7.5374   -6.3763    4.0383 C.2       1 <0>         0.0000
     12 C12         4.1264   -2.1206   -0.1324 C.3       1 <0>         0.0000
     13 C13         3.7374   -2.7316    4.0811 C.3       1 <0>         0.0000
     14 N1          3.9181   -2.2502    2.7477 N.pl3     1 <0>         0.0000
     15 O1          8.7140   -6.1715    3.6639 O.2       1 <0>         0.0000
     16 O2          7.0401   -7.6547    4.0700 O.3       1 <0>         0.0000
     17 S1          5.5758   -4.6607    3.2957 S.3       1 <0>         0.0000
     18 Cl1        -0.6358    0.0948    2.7785 Cl        1 <0>         0.0000
     19 H1          1.9616   -0.9158   -1.1932 H         1 <0>         0.0000
     20 H2          0.0060   -0.0046   -0.0136 H         1 <0>         0.0000
     21 H3          6.9110   -5.2289    6.6049 H         1 <0>         0.0000
     22 H4          5.0015   -3.3972    6.6318 H         1 <0>         0.0000
     23 H5          1.7143   -1.1975    3.7572 H         1 <0>         0.0000
     24 H6          4.8950   -1.3479   -0.2470 H         1 <0>         0.0000
     25 H7          4.5656   -2.9760    0.3949 H         1 <0>         0.0000
     26 H8          3.8343   -2.4745   -1.1286 H         1 <0>         0.0000
     27 H9          2.7569   -3.2171    4.1345 H         1 <0>         0.0000
     28 H10         3.7077   -1.8643    4.7490 H         1 <0>         0.0000
     29 H11         4.8103   -2.3266    2.2990 H         1 <0>         0.0000
     30 H12         7.6788   -8.3414    3.7821 H         1 <0>         0.0000
@<TRIPOS>BOND
     1    1    2 ar
     2    1    6 ar
     3    2    8 ar
     4    3    4 1
     5    3    9 2
     6    4   10 2
     7    5    7 ar
     8    5    8 ar
     9    6    7 ar
    10    6   12 1
    11    7   14 1
    12    8   18 1
    13    9   11 1
    14    9   17 1
    15   10   13 1
    16   10   17 1
    17   11   15 2
    18   11   16 1
    19   13   14 1
    20    1   19 1
    21    2   20 1
    22    3   21 1
    23    4   22 1
    24    5   23 1
    25   12   24 1
    26   12   25 1
    27   12   26 1
    28   13   27 1
    29   13   28 1
    30   14   29 1
    31   16   30 1
@<TRIPOS>MOLECULE
*****
   30    31     0     0     0
SMALL
NO_CHARGES

@<TRIPOS>ATOM
      1 C1          2.1242   -0.2566    0.1798 C.ar      1 <0>         0.0000
      2 C2          0.7997   -0.4873    0.5511 C.ar      1 <0>         0.0000
      3 C3          1.9422   -0.3106    6.3724 C.2       1 <0>         0.0000
      4 C4          2.0019   -1.4529    5.5228 C.2       1 <0>         0.0000
      5 C5          1.5537   -1.8827    2.3736 C.ar      1 <0>         0.0000
      6 C6          3.1636   -0.8390    0.9053 C.ar      1 <0>         0.0000
      7 C7          2.8783   -1.6520    2.0022 C.ar      1 <0>         0.0000
      8 C8          0.5144   -1.3003    1.6480 C.ar      1 <0>         0.0000
      9 C9          3.1618    0.3213    6.4763 C.2       1 <0>         0.0000
     10 C10         3.2651   -1.6504    5.0096 C.2       1 <0>         0.0000
     11 C11         3.5059    1.4868    7.2239 C.2       1 <0>         0.0000
     12 C12         4.5729   -0.5764    0.4839 C.3       1 <0>         0.0000
     13 C13         3.7374   -2.7316    4.0811 C.3       1 <0>         0.0000
     14 N1          3.9181   -2.2502    2.7477 N.pl3     1 <0>         0.0000
     15 O1          4.3601    1.5600    8.1358 O.2       1 <0>         0.0000
     16 O2          2.7959    2.6023    6.8578 O.3       1 <0>         0.0000
     17 S1          4.3720   -0.4619    5.5521 S.3       1 <0>         0.0000
     18 Cl1        -1.1201   -1.5845    2.1065 Cl        1 <0>         0.0000
     19 H1          2.3358    0.3779   -0.6770 H         1 <0>         0.0000
     20 H2          0.0002   -0.0265   -0.0231 H         1 <0>         0.0000
     21 H3          1.0471    0.0265    6.8798 H         1 <0>         0.0000
     22 H4          1.1584   -2.0946    5.3017 H         1 <0>         0.0000
     23 H5          1.3334   -2.5171    3.2296 H         1 <0>         0.0000
     24 H6          4.9614    0.3129    0.9931 H         1 <0>         0.0000
     25 H7          5.2221   -1.4278    0.7216 H         1 <0>         0.0000
     26 H8          4.6387   -0.4167   -0.5993 H         1 <0>         0.0000
     27 H9          4.6929   -3.1441    4.4232 H         1 <0>         0.0000
     28 H10         3.0207   -3.5587    4.0442 H         1 <0>         0.0000
     29 H11         4.8103   -2.3266    2.2990 H         1 <0>         0.0000
     30 H12         3.0259    3.4095    7.3656 H         1 <0>         0.0000
@<TRIPOS>BOND
     1    1    2 ar
     2    1    6 ar
     3    2    8 ar
     4    3    4 1
     5    3    9 2
     6    4   10 2
     7    5    7 ar
     8    5    8 ar
     9    6    7 ar
    10    6   12 1
    11    7   14 1
    12    8   18 1
    13    9   11 1
    14    9   17 1
    15   10   13 1
    16   10   17 1
    17   11   15 2
    18   11   16 1
    19   13   14 1
    20    1   19 1
    21    2   20 1
    22    3   21 1
    23    4   22 1
    24    5   23 1
    25   12   24 1
    26   12   25 1
    27   12   26 1
    28   13   27 1
    29   13   28 1
    30   14   29 1
    31   16   30 1
@<TRIPOS>MOLECULE
*****
   30    31     0     0     0
SMALL
NO_CHARGES

@<TRIPOS>ATOM
      1 C1          1.9149   -0.9807   -0.1093 C.ar      1 <0>         0.0000
      2 C2          0.8057   -0.4648    0.5608 C.ar      1 <0>         0.0000
      3 C3          4.3682   -0.5396    7.1030 C.2       1 <0>         0.0000
      4 C4          4.1694   -1.7960    6.4610 C.2       1 <0>         0.0000
      5 C5          1.7691   -1.1360    2.6723 C.ar      1 <0>         0.0000
      6 C6          2.9512   -1.5744    0.6114 C.ar      1 <0>         0.0000
      7 C7          2.8783   -1.6520    2.0022 C.ar      1 <0>         0.0000
      8 C8          0.7328   -0.5424    1.9516 C.ar      1 <0>         0.0000
      9 C9          4.3230    0.5098    6.2117 C.2       1 <0>         0.0000
     10 C10         3.9796   -1.6590    5.1033 C.2       1 <0>         0.0000
     11 C11         4.4749    1.9059    6.4634 C.2       1 <0>         0.0000
     12 C12         4.1264   -2.1206   -0.1324 C.3       1 <0>         0.0000
     13 C13         3.7374   -2.7316    4.0811 C.3       1 <0>         0.0000
     14 N1          3.9181   -2.2502    2.7477 N.pl3     1 <0>         0.0000
     15 O1          4.4252    2.8243    5.6146 O.2       1 <0>         0.0000
     16 O2          4.6931    2.2040    7.7848 O.3       1 <0>         0.0000
     17 S1          4.0418   -0.0209    4.6081 S.3       1 <0>         0.0000
     18 Cl1        -0.6358    0.0948    2.7785 Cl        1 <0>         0.0000
     19 H1          1.9616   -0.9158   -1.1932 H         1 <0>         0.0000
     20 H2          0.0060   -0.0046   -0.0136 H         1 <0>         0.0000
     21 H3          4.5358   -0.4170    8.1656 H         1 <0>         0.0000
     22 H4          4.1662   -2.7500    6.9729 H         1 <0>         0.0000
     23 H5          1.7143   -1.1975    3.7572 H         1 <0>         0.0000
     24 H6          4.8950   -1.3479   -0.2470 H         1 <0>         0.0000
     25 H7          4.5656   -2.9760    0.3949 H         1 <0>         0.0000
     26 H8          3.8343   -2.4745   -1.1286 H         1 <0>         0.0000
     27 H9          4.4244   -3.5714    4.2325 H         1 <0>         0.0000
     28 H10         2.7190   -3.1263    4.1594 H         1 <0>         0.0000
     29 H11         4.8103   -2.3266    2.2990 H         1 <0>         0.0000
     30 H12         4.7980    3.1619    7.9685 H         1 <0>         0.0000
@<TRIPOS>BOND
     1    1    2 ar
     2    1    6 ar
     3    2    8 ar
     4    3    4 1
     5    3    9 2
     6    4   10 2
     7    5    7 ar
     8    5    8 ar
     9    6    7 ar
    10    6   12 1
    11    7   14 1
    12    8   18 1
    13    9   11 1
    14    9   17 1
    15   10   13 1
    16   10   17 1
    17   11   15 2
    18   11   16 1
    19   13   14 1
    20    1   19 1
    21    2   20 1
    22    3   21 1
    23    4   22 1
    24    5   23 1
    25   12   24 1
    26   12   25 1
    27   12   26 1
    28   13   27 1
    29   13   28 1
    30   14   29 1
    31   16   30 1
@<TRIPOS>MOLECULE
*****
   30    31     0     0     0
SMALL
NO_CHARGES

@<TRIPOS>ATOM
      1 C1          2.0640   -0.6096   -0.0196 C.ar      1 <0>         0.0000
      2 C2          0.8013   -0.4764    0.5577 C.ar      1 <0>         0.0000
      3 C3          6.5722   -1.8681    6.4375 C.2       1 <0>         0.0000
      4 C4          5.2728   -1.6765    5.8853 C.2       1 <0>         0.0000
      5 C5          1.6155   -1.5187    2.5795 C.ar      1 <0>         0.0000
      6 C6          3.1026   -1.1975    0.7027 C.ar      1 <0>         0.0000
      7 C7          2.8783   -1.6520    2.0022 C.ar      1 <0>         0.0000
      8 C8          0.5770   -0.9309    1.8572 C.ar      1 <0>         0.0000
      9 C9          7.2310   -2.9282    5.8546 C.2       1 <0>         0.0000
     10 C10         4.9879   -2.5975    4.9011 C.2       1 <0>         0.0000
     11 C11         8.5371   -3.4319    6.1300 C.2       1 <0>         0.0000
     12 C12         4.4445   -1.3293    0.0588 C.3       1 <0>         0.0000
     13 C13         3.7374   -2.7316    4.0811 C.3       1 <0>         0.0000
     14 N1          3.9181   -2.2502    2.7477 N.pl3     1 <0>         0.0000
     15 O1          8.8218   -4.5861    6.5215 O.2       1 <0>         0.0000
     16 O2          9.5340   -2.5117    5.9246 O.3       1 <0>         0.0000
     17 S1          6.2839   -3.6874    4.6467 S.3       1 <0>         0.0000
     18 Cl1        -0.9812   -0.7659    2.5696 Cl        1 <0>         0.0000
     19 H1          2.2282   -0.2528   -1.0331 H         1 <0>         0.0000
     20 H2          0.0017   -0.0159   -0.0167 H         1 <0>         0.0000
     21 H3          6.9979   -1.2565    7.2230 H         1 <0>         0.0000
     22 H4          4.5848   -0.9008    6.1970 H         1 <0>         0.0000
     23 H5          1.4427   -1.8738    3.5933 H         1 <0>         0.0000
     24 H6          5.0518   -0.4401    0.2628 H         1 <0>         0.0000
     25 H7          4.9781   -2.2112    0.4333 H         1 <0>         0.0000
     26 H8          4.3520   -1.4487   -1.0275 H         1 <0>         0.0000
     27 H9          3.4252   -3.7799    4.0218 H         1 <0>         0.0000
     28 H10         2.9109   -2.1710    4.5303 H         1 <0>         0.0000
     29 H11         4.8103   -2.3266    2.2990 H         1 <0>         0.0000
     30 H12        10.4363   -2.8487    6.1104 H         1 <0>         0.0000
@<TRIPOS>BOND
     1    1    2 ar
     2    1    6 ar
     3    2    8 ar
     4    3    4 1
     5    3    9 2
     6    4   10 2
     7    5    7 ar
     8    5    8 ar
     9    6    7 ar
    10    6   12 1
    11    7   14 1
    12    8   18 1
    13    9   11 1
    14    9   17 1
    15   10   13 1
    16   10   17 1
    17   11   15 2
    18   11   16 1
    19   13   14 1
    20    1   19 1
    21    2   20 1
    22    3   21 1
    23    4   22 1
    24    5   23 1
    25   12   24 1
    26   12   25 1
    27   12   26 1
    28   13   27 1
    29   13   28 1
    30   14   29 1
    31   16   30 1
@<TRIPOS>MOLECULE
*****
   30    31     0     0     0
SMALL
NO_CHARGES

@<TRIPOS>ATOM
      1 C1          2.1242   -0.2566    0.1798 C.ar      1 <0>         0.0000
      2 C2          0.7997   -0.4873    0.5511 C.ar      1 <0>         0.0000
      3 C3          3.6718   -0.0122    6.7145 C.2       1 <0>         0.0000
      4 C4          3.0546   -0.9569    5.8446 C.2       1 <0>         0.0000
      5 C5          1.5537   -1.8827    2.3736 C.ar      1 <0>         0.0000
      6 C6          3.1636   -0.8390    0.9053 C.ar      1 <0>         0.0000
      7 C7          2.8783   -1.6520    2.0022 C.ar      1 <0>         0.0000
      8 C8          0.5144   -1.3003    1.6480 C.ar      1 <0>         0.0000
      9 C9          5.0449   -0.0283    6.6053 C.2       1 <0>         0.0000
     10 C10         3.9796   -1.6590    5.1033 C.2       1 <0>         0.0000
     11 C11         6.0081    0.7614    7.3011 C.2       1 <0>         0.0000
     12 C12         4.5729   -0.5764    0.4839 C.3       1 <0>         0.0000
     13 C13         3.7374   -2.7316    4.0811 C.3       1 <0>         0.0000
     14 N1          3.9181   -2.2502    2.7477 N.pl3     1 <0>         0.0000
     15 O1          6.9234    0.3362    8.0413 O.2       1 <0>         0.0000
     16 O2          5.8626    2.1102    7.0957 O.3       1 <0>         0.0000
     17 S1          5.5847   -1.1788    5.4576 S.3       1 <0>         0.0000
     18 Cl1        -1.1201   -1.5845    2.1065 Cl        1 <0>         0.0000
     19 H1          2.3358    0.3779   -0.6770 H         1 <0>         0.0000
     20 H2          0.0002   -0.0265   -0.0231 H         1 <0>         0.0000
     21 H3          3.1314    0.6439    7.3851 H         1 <0>         0.0000
     22 H4          1.9855   -1.1104    5.7691 H         1 <0>         0.0000
     23 H5          1.3334   -2.5171    3.2296 H         1 <0>         0.0000
     24 H6          4.9614    0.3129    0.9931 H         1 <0>         0.0000
     25 H7          5.2221   -1.4278    0.7216 H         1 <0>         0.0000
     26 H8          4.6387   -0.4167   -0.5993 H         1 <0>         0.0000
     27 H9          4.4244   -3.5714    4.2325 H         1 <0>         0.0000
     28 H10         2.7190   -3.1263    4.1594 H         1 <0>         0.0000
     29 H11         4.8103   -2.3266    2.2990 H         1 <0>         0.0000
     30 H12         6.5209    2.6621    7.5693 H         1 <0>         0.0000
@<TRIPOS>BOND
     1    1    2 ar
     2    1    6 ar
     3    2    8 ar
     4    3    4 1
     5    3    9 2
     6    4   10 2
     7    5    7 ar
     8    5    8 ar
     9    6    7 ar
    10    6   12 1
    11    7   14 1
    12    8   18 1
    13    9   11 1
    14    9   17 1
    15   10   13 1
    16   10   17 1
    17   11   15 2
    18   11   16 1
    19   13   14 1
    20    1   19 1
    21    2   20 1
    22    3   21 1
    23    4   22 1
    24    5   23 1
    25   12   24 1
    26   12   25 1
    27   12   26 1
    28   13   27 1
    29   13   28 1
    30   14   29 1
    31   16   30 1
@<TRIPOS>MOLECULE
*****
   30    31     0     0     0
SMALL
NO_CHARGES

@<TRIPOS>ATOM
      1 C1          1.9149   -0.9807   -0.1093 C.ar      1 <0>         0.0000
      2 C2          0.8057   -0.4648    0.5608 C.ar      1 <0>         0.0000
      3 C3          6.4394   -1.2783    6.2996 C.2       1 <0>         0.0000
      4 C4          5.9651   -2.1437    5.2718 C.2       1 <0>         0.0000
      5 C5          1.7691   -1.1360    2.6723 C.ar      1 <0>         0.0000
      6 C6          2.9512   -1.5744    0.6114 C.ar      1 <0>         0.0000
      7 C7          2.8783   -1.6520    2.0022 C.ar      1 <0>         0.0000
      8 C8          0.7328   -0.5424    1.9516 C.ar      1 <0>         0.0000
      9 C9          5.4293   -0.5117    6.8377 C.2       1 <0>         0.0000
     10 C10         4.6102   -2.0056    5.0637 C.2       1 <0>         0.0000
     11 C11         5.5013    0.4635    7.8765 C.2       1 <0>         0.0000
     12 C12         4.1264   -2.1206   -0.1324 C.3       1 <0>         0.0000
     13 C13         3.7374   -2.7316    4.0811 C.3       1 <0>         0.0000
     14 N1          3.9181   -2.2502    2.7477 N.pl3     1 <0>         0.0000
     15 O1          4.8894    0.4341    8.9679 O.2       1 <0>         0.0000
     16 O2          6.3415    1.5095    7.5890 O.3       1 <0>         0.0000
     17 S1          3.9162   -0.8364    6.1046 S.3       1 <0>         0.0000
     18 Cl1        -0.6358    0.0948    2.7785 Cl        1 <0>         0.0000
     19 H1          1.9616   -0.9158   -1.1932 H         1 <0>         0.0000
     20 H2          0.0060   -0.0046   -0.0136 H         1 <0>         0.0000
     21 H3          7.4709   -1.2243    6.6242 H         1 <0>         0.0000
     22 H4          6.5895   -2.8315    4.7157 H         1 <0>         0.0000
     23 H5          1.7143   -1.1975    3.7572 H         1 <0>         0.0000
     24 H6          4.8950   -1.3479   -0.2470 H         1 <0>         0.0000
     25 H7          4.5656   -2.9760    0.3949 H         1 <0>         0.0000
     26 H8          3.8343   -2.4745   -1.1286 H         1 <0>         0.0000
     27 H9          3.9603   -3.8041    4.0856 H         1 <0>         0.0000
     28 H10         2.6788   -2.6184    4.3374 H         1 <0>         0.0000
     29 H11         4.8103   -2.3266    2.2990 H         1 <0>         0.0000
     30 H12         6.3987    2.1854    8.2977 H         1 <0>         0.0000
@<TRIPOS>BOND
     1    1    2 ar
     2    1    6 ar
     3    2    8 ar
     4    3    4 1
     5    3    9 2
     6    4   10 2
     7    5    7 ar
     8    5    8 ar
     9    6    7 ar
    10    6   12 1
    11    7   14 1
    12    8   18 1
    13    9   11 1
    14    9   17 1
    15   10   13 1
    16   10   17 1
    17   11   15 2
    18   11   16 1
    19   13   14 1
    20    1   19 1
    21    2   20 1
    22    3   21 1
    23    4   22 1
    24    5   23 1
    25   12   24 1
    26   12   25 1
    27   12   26 1
    28   13   27 1
    29   13   28 1
    30   14   29 1
    31   16   30 1
