2-[2-(2,6-dichloroanilino)phenyl]acetic acid
  -OEChem-02121815203D

 30 31  0     0  0  0  0  0  0999 V2000
    1.8851   -1.0363   -0.1124 C   0  0  0  0  0  0  0  0  0  0  0  0
    0.8066   -0.4630    0.5610 C   0  0  0  0  0  0  0  0  0  0  0  0
    0.0269    1.5330    6.8789 C   0  0  0  0  0  0  0  0  0  0  0  0
    2.9210   -1.6309    0.6081 C   0  0  0  0  0  0  0  0  0  0  0  0
    0.7638   -0.4841    1.9551 C   0  0  0  0  0  0  0  0  0  0  0  0
    1.0150    1.9902    6.0071 C   0  0  0  0  0  0  0  0  0  0  0  0
   -0.3921    0.2037    6.8227 C   0  0  0  0  0  0  0  0  0  0  0  0
    2.8783   -1.6520    2.0022 C   0  0  0  0  0  0  0  0  0  0  0  0
    1.7997   -1.0786    2.6757 C   0  0  0  0  0  0  0  0  0  0  0  0
    1.1650   -0.2110    5.0226 C   0  0  0  0  0  0  0  0  0  0  0  0
    1.5841    1.1183    5.0789 C   0  0  0  0  0  0  0  0  0  0  0  0
    0.1769   -0.6683    5.8945 C   0  0  0  0  0  0  0  0  0  0  0  0
    3.6115   -3.6680    3.2332 C   0  0  0  0  0  0  0  0  0  0  0  0
    4.0014   -2.2955    2.7485 C   0  0  0  0  0  0  0  0  0  0  0  0
    1.7396   -1.0907    4.0865 N   0  0  0  0  0  0  0  0  0  0  0  0
    2.4932   -4.1485    3.0981 O   0  0  0  0  0  0  0  0  0  0  0  0
    4.6250   -4.3098    3.8666 O   0  0  0  0  0  0  0  0  0  0  0  0
    2.8057    1.7306    4.0209 Cl  0  0  0  0  0  0  0  0  0  0  0  0
   -0.3757   -2.3055    5.8625 Cl  0  0  0  0  0  0  0  0  0  0  0  0
    1.9183   -1.0198   -1.1979 H   0  0  0  0  0  0  0  0  0  0  0  0
    0.0001   -0.0002   -0.0002 H   0  0  0  0  0  0  0  0  0  0  0  0
   -0.4167    2.2113    7.6019 H   0  0  0  0  0  0  0  0  0  0  0  0
    3.7569   -2.0748    0.0739 H   0  0  0  0  0  0  0  0  0  0  0  0
   -0.0818   -0.0342    2.4690 H   0  0  0  0  0  0  0  0  0  0  0  0
    1.3296    3.0294    6.0650 H   0  0  0  0  0  0  0  0  0  0  0  0
   -1.1634   -0.1361    7.5097 H   0  0  0  0  0  0  0  0  0  0  0  0
    4.3313   -1.6823    3.5950 H   0  0  0  0  0  0  0  0  0  0  0  0
    4.8868   -2.4033    2.1102 H   0  0  0  0  0  0  0  0  0  0  0  0
    2.2028   -1.8913    4.5046 H   0  0  0  0  0  0  0  0  0  0  0  0
    4.4045   -5.1992    4.2169 H   0  0  0  0  0  0  0  0  0  0  0  0
  1  2  1  0  0  0  0
  1  4  2  0  0  0  0
  2  5  2  0  0  0  0
  3  6  2  0  0  0  0
  3  7  1  0  0  0  0
  4  8  1  0  0  0  0
  5  9  1  0  0  0  0
  6 11  1  0  0  0  0
  7 12  2  0  0  0  0
  8  9  2  0  0  0  0
  8 14  1  0  0  0  0
  9 15  1  0  0  0  0
 10 11  2  0  0  0  0
 10 12  1  0  0  0  0
 10 15  1  0  0  0  0
 11 18  1  0  0  0  0
 12 19  1  0  0  0  0
 13 14  1  0  0  0  0
 13 16  2  0  0  0  0
 13 17  1  0  0  0  0
  1 20  1  0  0  0  0
  2 21  1  0  0  0  0
  3 22  1  0  0  0  0
  4 23  1  0  0  0  0
  5 24  1  0  0  0  0
  6 25  1  0  0  0  0
  7 26  1  0  0  0  0
 14 27  1  0  0  0  0
 14 28  1  0  0  0  0
 15 29  1  0  0  0  0
 17 30  1  0  0  0  0
M  END
$$$$
