@<TRIPOS>MOLECULE
*****
   21    21     0     0     0
SMALL
NO_CHARGES

@<TRIPOS>ATOM
      1 O1          0.8036   -2.7039   -5.9633 O.3       1 UNL1           nan
      2 C1          0.2992   -2.5729   -4.7095 C.2       1 UNL1           nan
      3 C2          0.5910   -1.1933   -4.1767 C.3       1 UNL1           nan
      4 C3          0.0448   -0.9981   -2.7731 C.3       1 UNL1           nan
      5 C4          0.6372    0.2135   -2.0602 C.3       1 UNL1           nan
      6 C5         -0.3396    0.4881   -0.9209 C.3       1 UNL1           nan
      7 C6         -1.6799   -0.1059   -1.3575 C.3       1 UNL1           nan
      8 C7         -1.4494   -0.6928   -2.7462 C.3       1 UNL1           nan
      9 O2         -0.3005   -3.4610   -4.1225 O.2       1 UNL1           nan
     10 H1          0.6282   -3.5938   -6.3370 H         1 UNL1           nan
     11 H2          0.1358   -0.4581   -4.8486 H         1 UNL1           nan
     12 H3          1.6762   -1.0475   -4.1671 H         1 UNL1           nan
     13 H4          0.2422   -1.9014   -2.1809 H         1 UNL1           nan
     14 H5          1.6518    0.0270   -1.6943 H         1 UNL1           nan
     15 H6          0.6757    1.0813   -2.7303 H         1 UNL1           nan
     16 H7          0.0009    0.0008    0.0000 H         1 UNL1           nan
     17 H8         -0.4171    1.5603   -0.7140 H         1 UNL1           nan
     18 H9         -1.9815   -0.8931   -0.6567 H         1 UNL1           nan
     19 H10        -2.4750    0.6463   -1.3687 H         1 UNL1           nan
     20 H11        -1.7112    0.0502   -3.5096 H         1 UNL1           nan
     21 H12        -2.0610   -1.5832   -2.9214 H         1 UNL1           nan
@<TRIPOS>BOND
     1    1    2 1
     2    2    3 1
     3    3    4 1
     4    4    8 1
     5    4    5 1
     6    5    6 1
     7    6    7 1
     8    7    8 1
     9    2    9 2
    10    1   10 1
    11    3   11 1
    12    3   12 1
    13    4   13 1
    14    5   14 1
    15    5   15 1
    16    6   16 1
    17    6   17 1
    18    7   18 1
    19    7   19 1
    20    8   20 1
    21    8   21 1
