@<TRIPOS>MOLECULE
*****
  192   212     0     0     0
SMALL
USER_CHARGES

@<TRIPOS>ATOM
      1 H1          3.9500   -0.2810    2.4280 H         1 <0>         0.1575
      2 C1          3.4640    0.6620    2.1830 C.ar      1 <0>        -0.1477
      3 C2          2.1990    3.0910    1.5500 C.ar      1 <0>        -0.1035
      4 C3          2.5650    1.2630    3.0650 C.ar      1 <0>         0.0883
      5 C4          3.7170    1.3160    0.9760 C.ar      1 <0>         0.0883
      6 C5          3.1130    2.5410    0.6420 C.ar      1 <0>        -0.0811
      7 C6          1.9290    2.4880    2.7840 C.ar      1 <0>        -0.0811
      8 H2          1.6650    4.0120    1.2810 H         1 <0>         0.1630
      9 C7          0.9660    3.0760    3.7930 C.3       1 <0>         0.0194
     10 H3          1.2810    2.6990    4.8140 H         1 <0>         0.1006
     11 C8          3.4610    3.2190   -0.6690 C.3       1 <0>         0.0194
     12 H4          4.4990    2.8680   -0.9650 H         1 <0>         0.1006
     13 C9         -0.4090    2.5080    3.4960 C.ar      1 <0>        -0.0811
     14 C10        -2.8580    1.3090    2.8730 C.ar      1 <0>         0.0883
     15 C11        -0.7820    1.2690    4.0500 C.ar      1 <0>         0.0883
     16 C12        -1.3130    3.1320    2.6250 C.ar      1 <0>        -0.1035
     17 C13        -2.5410    2.5500    2.2880 C.ar      1 <0>        -0.0811
     18 C14        -2.0060    0.6600    3.7680 C.ar      1 <0>        -0.1477
     19 H5         -1.0340    4.0930    2.1730 H         1 <0>         0.1630
     20 H6         -2.2810   -0.2910    4.2200 H         1 <0>         0.1581
     21 C15         2.5000    2.7230   -1.7250 C.ar      1 <0>        -0.0811
     22 C16         0.7310    1.5730   -3.5570 C.ar      1 <0>         0.0883
     23 C17         1.2770    3.3430   -2.0180 C.ar      1 <0>        -0.1035
     24 C18         2.8100    1.5220   -2.3950 C.ar      1 <0>         0.0883
     25 C19         1.9520    0.9400   -3.3280 C.ar      1 <0>        -0.1477
     26 C20         0.3640    2.7750   -2.9180 C.ar      1 <0>        -0.0811
     27 H7          1.0170    4.2740   -1.5060 H         1 <0>         0.1630
     28 H8          2.2200    0.0220   -3.8480 H         1 <0>         0.1581
     29 C21        -1.0110    3.3450   -3.1970 C.3       1 <0>         0.0194
     30 H9         -1.3020    2.9940   -4.2380 H         1 <0>         0.1006
     31 C22        -3.5040    3.1740    1.2970 C.3       1 <0>         0.0194
     32 H10        -4.5440    2.8030    1.5610 H         1 <0>         0.1006
     33 C23        -3.1820    2.6440   -0.0850 C.ar      1 <0>        -0.0811
     34 C24        -2.6180    1.5100   -2.5800 C.ar      1 <0>         0.0883
     35 C25        -3.7750    1.4340   -0.4970 C.ar      1 <0>         0.0883
     36 C26        -2.2960    3.2700   -0.9720 C.ar      1 <0>        -0.1035
     37 C27        -1.9950    2.7220   -2.2270 C.ar      1 <0>        -0.0811
     38 C28        -3.5180    0.8540   -1.7400 C.ar      1 <0>        -0.1477
     39 H11        -1.8190    4.2170   -0.6780 H         1 <0>         0.1630
     40 H12        -4.0000   -0.0740   -2.0410 H         1 <0>         0.1581
     41 C29         3.5160    4.7420   -0.4850 C.3       1 <0>        -0.0763
     42 H13         2.4990    5.1690   -0.3280 H         1 <0>         0.0693
     43 C30         0.9460    4.6160    3.8570 C.3       1 <0>        -0.0763
     44 H14         0.3670    5.0320    2.9990 H         1 <0>         0.0693
     45 O1         -2.3410    0.8810   -3.8020 O.3       1 <0>        -0.3334
     46 O2         -0.1420    0.9280   -4.4460 O.3       1 <0>        -0.3334
     47 O3         -4.6480    0.7290    0.3440 O.3       1 <0>        -0.3334
     48 O4          2.2870    0.5560    4.2440 O.3       1 <0>        -0.3334
     49 O5          0.0870    0.5580    4.8900 O.3       1 <0>        -0.3334
     50 O6         -4.0470    0.6380    2.5530 O.3       1 <0>        -0.3334
     51 C31         1.0610   -0.2000    4.1410 C.3       1 <0>         0.3714
     52 H15         0.7480   -0.3150    3.0760 H         1 <0>         0.0705
     53 C32        -3.9450   -0.0830    1.3060 C.3       1 <0>         0.3714
     54 H16        -2.8790   -0.2270    1.0100 H         1 <0>         0.0705
     55 O7          4.5870    0.6700    0.0870 O.3       1 <0>        -0.3334
     56 C33         3.8800   -0.0220   -0.9630 C.3       1 <0>         0.3714
     57 H17         2.8110   -0.1850   -0.6910 H         1 <0>         0.0705
     58 O8          3.9980    0.8270   -2.1240 O.3       1 <0>        -0.3334
     59 C34        -1.1180    0.1160   -3.7580 C.3       1 <0>         0.3714
     60 H18        -0.8060   -0.0860   -2.7070 H         1 <0>         0.0705
     61 C35         4.5630   -1.3460   -1.2240 C.ar      1 <0>        -0.0130
     62 C36         5.4720   -3.9900   -1.6030 C.ar      1 <0>        -0.1497
     63 C37         4.4780   -1.9190   -2.4940 C.ar      1 <0>        -0.1996
     64 C38         5.1010   -2.0450   -0.1410 C.ar      1 <0>        -0.1996
     65 C39         5.5450   -3.3590   -0.3430 C.ar      1 <0>         0.1864
     66 C40         4.9320   -3.2350   -2.6650 C.ar      1 <0>         0.1864
     67 H19         4.0930   -1.3400   -3.3320 H         1 <0>         0.1629
     68 H20         5.1940   -1.5590    0.8310 H         1 <0>         0.1629
     69 C41        -1.3150   -1.1830   -4.5070 C.ar      1 <0>        -0.0130
     70 C42        -1.5810   -3.7970   -5.5340 C.ar      1 <0>        -0.1497
     71 C43        -0.2120   -1.7950   -5.1050 C.ar      1 <0>        -0.1996
     72 C44        -2.5510   -1.8270   -4.4210 C.ar      1 <0>        -0.1996
     73 C45        -2.6680   -3.1260   -4.9340 C.ar      1 <0>         0.1864
     74 C46        -0.3590   -3.0960   -5.6090 C.ar      1 <0>         0.1864
     75 H21         0.7310   -1.2560   -5.1980 H         1 <0>         0.1629
     76 H22        -3.4080   -1.3100   -3.9880 H         1 <0>         0.1629
     77 C47        -4.6370   -1.4210    1.4430 C.ar      1 <0>        -0.0130
     78 C48        -5.5480   -4.0860    1.5880 C.ar      1 <0>        -0.1497
     79 C49        -5.1860   -2.0160    0.3060 C.ar      1 <0>        -0.1996
     80 C50        -4.5430   -2.1070    2.6550 C.ar      1 <0>        -0.1996
     81 C51        -4.9980   -3.4320    2.7110 C.ar      1 <0>         0.1864
     82 C52        -5.6320   -3.3420    0.3920 C.ar      1 <0>         0.1864
     83 H23        -5.2870   -1.4440   -0.6170 H         1 <0>         0.1629
     84 H24        -4.1490   -1.6070    3.5390 H         1 <0>         0.1629
     85 C53         1.2490   -1.5600    4.7750 C.ar      1 <0>        -0.0130
     86 C54         1.4850   -4.2600    5.5550 C.ar      1 <0>        -0.1497
     87 C55         2.4750   -2.2100    4.6190 C.ar      1 <0>        -0.1996
     88 C56         0.1420   -2.2090    5.3240 C.ar      1 <0>        -0.1996
     89 C57         0.2750   -3.5520    5.7060 C.ar      1 <0>         0.1864
     90 C58         2.5770   -3.5530    5.0070 C.ar      1 <0>         0.1864
     91 H25         3.3360   -1.6680    4.2270 H         1 <0>         0.1629
     92 H26        -0.7920   -1.6680    5.4750 H         1 <0>         0.1629
     93 O9          6.0600   -4.1490    0.6620 O.3       1 <0>        -0.2388
     94 O10         0.6660   -3.8020   -6.1980 O.3       1 <0>        -0.2388
     95 O11        -3.8320   -3.8620   -4.8790 O.3       1 <0>        -0.2388
     96 O12         3.7250   -4.3020    4.8640 O.3       1 <0>        -0.2388
     97 O13        -6.1620   -4.0370   -0.6730 O.3       1 <0>        -0.2388
     98 O14        -4.9340   -4.2090    3.8470 O.3       1 <0>        -0.2388
     99 O15        -0.7560   -4.2930    6.2420 O.3       1 <0>        -0.2388
    100 O16         4.8820   -3.9020   -3.8700 O.3       1 <0>        -0.2388
    101 C59        -4.8760   -3.4080   -4.0430 C.ar      1 <0>         0.0810
    102 C60        -7.0820   -2.7390   -2.4890 C.ar      1 <0>        -0.1209
    103 C61        -4.8930   -3.8390   -2.7130 C.ar      1 <0>        -0.1267
    104 C62        -5.9040   -2.6520   -4.6160 C.ar      1 <0>        -0.1209
    105 C63        -7.0110   -2.3280   -3.8250 C.ar      1 <0>        -0.1160
    106 C64        -6.0240   -3.4920   -1.9690 C.ar      1 <0>         0.0810
    107 H27        -5.8410   -2.3440   -5.6600 H         1 <0>         0.1602
    108 H28        -7.9440   -2.4990   -1.8660 H         1 <0>         0.1602
    109 C65        -4.1340   -3.7650    4.9240 C.ar      1 <0>         0.0810
    110 C66        -2.6480   -3.1340    7.1870 C.ar      1 <0>        -0.1209
    111 C67        -2.7850   -4.1300    4.9420 C.ar      1 <0>        -0.1267
    112 C68        -4.7590   -3.0910    5.9780 C.ar      1 <0>        -0.1209
    113 C69        -4.0020   -2.7850    7.1140 C.ar      1 <0>        -0.1160
    114 C70        -2.0760   -3.8070    6.1030 C.ar      1 <0>         0.0810
    115 H29        -5.8160   -2.8310    5.9130 H         1 <0>         0.1602
    116 H30        -2.0500   -2.9100    8.0710 H         1 <0>         0.1602
    117 C71         4.7730   -3.7840    4.0710 C.ar      1 <0>         0.0810
    118 C72         6.9830   -3.0020    2.5770 C.ar      1 <0>        -0.1209
    119 C73         5.8020   -3.0780    4.7020 C.ar      1 <0>        -0.1209
    120 C74         4.7910   -4.1110    2.7120 C.ar      1 <0>        -0.1267
    121 C75         5.9250   -3.7100    1.9990 C.ar      1 <0>         0.0810
    122 C76         6.9120   -2.6960    3.9410 C.ar      1 <0>        -0.1160
    123 H31         5.7390   -2.8520    5.7670 H         1 <0>         0.1602
    124 H32         7.8470   -2.7170    1.9750 H         1 <0>         0.1602
    125 C77         4.0640   -3.3790   -4.8960 C.ar      1 <0>         0.0810
    126 C78         2.5470   -2.5810   -7.0840 C.ar      1 <0>        -0.1209
    127 C79         2.7130   -3.7380   -4.9200 C.ar      1 <0>        -0.1267
    128 C80         4.6760   -2.6330   -5.9080 C.ar      1 <0>        -0.1209
    129 C81         3.9030   -2.2430   -7.0070 C.ar      1 <0>        -0.1160
    130 C82         1.9890   -3.3290   -6.0430 C.ar      1 <0>         0.0810
    131 H33         5.7350   -2.3830   -5.8410 H         1 <0>         0.1602
    132 H34         1.9360   -2.2900   -7.9390 H         1 <0>         0.1602
    133 H35         0.3710    4.9140    4.7590 H         1 <0>         0.0693
    134 C83        -3.5230    4.7080    1.4110 C.3       1 <0>        -0.0763
    135 C84        -1.0410    4.8820   -3.2090 C.3       1 <0>        -0.0763
    136 H36         4.0660    4.9620    0.4610 H         1 <0>         0.0693
    137 H37        -1.0290    5.2950   -2.1740 H         1 <0>         0.0693
    138 H38        -0.1300    5.2740   -3.7090 H         1 <0>         0.0693
    139 H39        -2.5060    5.1260    1.2310 H         1 <0>         0.0693
    140 H40        -3.7670    4.9790    2.4600 H         1 <0>         0.0693
    141 C85        -4.5290    5.3740    0.4680 C.3       1 <0>        -0.1272
    142 H41        -5.2380    4.6330    0.0320 H         1 <0>         0.0883
    143 H42        -5.1850    6.0800    1.0250 H         1 <0>         0.0883
    144 C86         4.2060    5.4640   -1.6410 C.3       1 <0>        -0.1272
    145 H43         5.1460    4.9440   -1.9410 H         1 <0>         0.0883
    146 H44         3.5770    5.4530   -2.5590 H         1 <0>         0.0883
    147 C87        -2.2870    5.3920   -3.9450 C.3       1 <0>        -0.1272
    148 H45        -3.2090    5.0130   -3.4470 H         1 <0>         0.0883
    149 H46        -2.3130    4.9930   -4.9860 H         1 <0>         0.0883
    150 C88         2.3300    5.2730    3.8980 C.3       1 <0>        -0.1272
    151 H47         3.1340    4.5300    4.1030 H         1 <0>         0.0883
    152 H48         2.4020    5.9910    4.7460 H         1 <0>         0.0883
    153 C89         4.5360    6.8710   -1.2410 C.2       1 <0>         0.6464
    154 C90        -2.3330    6.8880   -3.9930 C.2       1 <0>         0.6464
    155 C91         2.6310    5.9990    2.6160 C.2       1 <0>         0.6464
    156 C92        -3.8440    6.1170   -0.6430 C.2       1 <0>         0.6464
    157 O17        -3.2150    7.6410   -3.6240 O.2       1 <0>        -0.5810
    158 O18        -2.6520    6.2330   -0.8580 O.2       1 <0>        -0.5810
    159 O19         4.6590    7.3670   -0.1400 O.2       1 <0>        -0.5810
    160 O20         1.9020    6.1800    1.6590 O.2       1 <0>        -0.5810
    161 O21        -4.7570    6.6860   -1.4730 O.3       1 <0>        -0.6067
    162 H49        -4.3300    7.2120   -2.2460 H         1 <0>         0.4618
    163 O22        -1.2170    7.4140   -4.5850 O.3       1 <0>        -0.6067
    164 H50        -1.2360    8.4130   -4.6220 H         1 <0>         0.4618
    165 O23         4.7320    7.6480   -2.3530 O.3       1 <0>        -0.6067
    166 H51         4.9680    8.5920   -2.1320 H         1 <0>         0.4618
    167 O24         3.9140    6.4520    2.5930 O.3       1 <0>        -0.6067
    168 H52         4.1510    6.9380    1.7260 H         1 <0>         0.4618
    169 H53         2.2630   -4.3430   -4.1310 H         1 <0>         0.1744
    170 H54         3.9880   -4.6830    2.2450 H         1 <0>         0.1744
    171 H55        -4.0910   -4.4490   -2.2940 H         1 <0>         0.1744
    172 H56        -2.3240   -4.6780    4.1190 H         1 <0>         0.1744
    173 H57        -7.8310   -1.7480   -4.2550 H         1 <0>         0.1491
    174 H58        -4.4720   -2.2690    7.9540 H         1 <0>         0.1491
    175 H59         7.7320   -2.1540    4.4160 H         1 <0>         0.1491
    176 H60         4.3630   -1.6680   -7.8140 H         1 <0>         0.1491
    177 C93        -1.7070   -5.1880   -6.0230 C.2       1 <0>         0.6776
    178 O25        -1.5320   -6.2260   -5.4350 O.2       1 <0>        -0.5245
    179 O26        -2.0800   -5.1920   -7.3470 O.3       1 <0>        -0.5902
    180 H61        -2.1750   -6.1160   -7.7100 H         1 <0>         0.4450
    181 C94        -5.9790   -5.5010    1.6510 C.2       1 <0>         0.6776
    182 O27        -5.3430   -6.5060    1.4520 O.2       1 <0>        -0.5245
    183 O28        -7.3100   -5.5740    1.9920 O.3       1 <0>        -0.5902
    184 H62        -7.6350   -6.5150    2.0410 H         1 <0>         0.4450
    185 C95         1.5910   -5.6920    5.9140 C.2       1 <0>         0.6776
    186 O29         1.3550   -6.6690    5.2490 O.2       1 <0>        -0.5245
    187 O30         2.0290   -5.8220    7.2120 O.3       1 <0>        -0.5902
    188 H63         2.1120   -6.7770    7.4880 H         1 <0>         0.4450
    189 C96         5.9060   -5.3920   -1.7910 C.2       1 <0>         0.6776
    190 O31         5.2730   -6.4130   -1.6890 O.2       1 <0>        -0.5245
    191 O32         7.2400   -5.4300   -2.1280 O.3       1 <0>        -0.5902
    192 H64         7.5690   -6.3610   -2.2610 H         1 <0>         0.4450
@<TRIPOS>BOND
     1    1    2 1
     2    2    5 ar
     3    2    4 ar
     4    3    6 ar
     5    3    7 ar
     6    3    8 1
     7    4    7 ar
     8    4   48 1
     9    5    6 ar
    10    5   55 1
    11    6   11 1
    12    7    9 1
    13    9   10 1
    14    9   13 1
    15    9   43 1
    16   11   12 1
    17   11   21 1
    18   11   41 1
    19   13   16 ar
    20   13   15 ar
    21   14   17 ar
    22   14   18 ar
    23   14   50 1
    24   15   18 ar
    25   15   49 1
    26   16   17 ar
    27   16   19 1
    28   17   31 1
    29   18   20 1
    30   21   24 ar
    31   21   23 ar
    32   22   25 ar
    33   22   26 ar
    34   22   46 1
    35   23   26 ar
    36   23   27 1
    37   24   25 ar
    38   24   58 1
    39   25   28 1
    40   26   29 1
    41   29   30 1
    42   29   37 1
    43   29  135 1
    44   31   32 1
    45   31   33 1
    46   31  134 1
    47   33   36 ar
    48   33   35 ar
    49   34   37 ar
    50   34   38 ar
    51   34   45 1
    52   35   38 ar
    53   35   47 1
    54   36   37 ar
    55   36   39 1
    56   38   40 1
    57   41  136 1
    58   41   42 1
    59   41  144 1
    60   43  133 1
    61   43   44 1
    62   43  150 1
    63   45   59 1
    64   46   59 1
    65   47   53 1
    66   48   51 1
    67   49   51 1
    68   50   53 1
    69   51   52 1
    70   51   85 1
    71   53   54 1
    72   53   77 1
    73   55   56 1
    74   56   57 1
    75   56   58 1
    76   56   61 1
    77   59   60 1
    78   59   69 1
    79   61   64 ar
    80   61   63 ar
    81   62   65 ar
    82   62   66 ar
    83   62  189 1
    84   63   66 ar
    85   63   67 1
    86   64   65 ar
    87   64   68 1
    88   65   93 1
    89   66  100 1
    90   69   72 ar
    91   69   71 ar
    92   70   73 ar
    93   70   74 ar
    94   70  177 1
    95   71   74 ar
    96   71   75 1
    97   72   73 ar
    98   72   76 1
    99   73   95 1
   100   74   94 1
   101   77   80 ar
   102   77   79 ar
   103   78   81 ar
   104   78   82 ar
   105   78  181 1
   106   79   82 ar
   107   79   83 1
   108   80   81 ar
   109   80   84 1
   110   81   98 1
   111   82   97 1
   112   85   88 ar
   113   85   87 ar
   114   86   89 ar
   115   86   90 ar
   116   86  185 1
   117   87   90 ar
   118   87   91 1
   119   88   89 ar
   120   88   92 1
   121   89   99 1
   122   90   96 1
   123   93  121 1
   124   94  130 1
   125   95  101 1
   126   96  117 1
   127   97  106 1
   128   98  109 1
   129   99  114 1
   130  100  125 1
   131  101  104 ar
   132  101  103 ar
   133  102  105 ar
   134  102  106 ar
   135  102  108 1
   136  103  106 ar
   137  103  171 1
   138  104  105 ar
   139  104  107 1
   140  105  173 1
   141  109  112 ar
   142  109  111 ar
   143  110  113 ar
   144  110  114 ar
   145  110  116 1
   146  111  114 ar
   147  111  172 1
   148  112  113 ar
   149  112  115 1
   150  113  174 1
   151  117  120 ar
   152  117  119 ar
   153  118  121 ar
   154  118  122 ar
   155  118  124 1
   156  119  122 ar
   157  119  123 1
   158  120  121 ar
   159  120  170 1
   160  122  175 1
   161  125  128 ar
   162  125  127 ar
   163  126  129 ar
   164  126  130 ar
   165  126  132 1
   166  127  130 ar
   167  127  169 1
   168  128  129 ar
   169  128  131 1
   170  129  176 1
   171  134  139 1
   172  134  140 1
   173  134  141 1
   174  135  137 1
   175  135  138 1
   176  135  147 1
   177  141  142 1
   178  141  143 1
   179  141  156 1
   180  144  145 1
   181  144  146 1
   182  144  153 1
   183  147  148 1
   184  147  149 1
   185  147  154 1
   186  150  151 1
   187  150  152 1
   188  150  155 1
   189  153  159 2
   190  153  165 1
   191  154  157 2
   192  154  163 1
   193  155  160 2
   194  155  167 1
   195  156  158 2
   196  156  161 1
   197  161  162 1
   198  163  164 1
   199  165  166 1
   200  167  168 1
   201  177  178 2
   202  177  179 1
   203  179  180 1
   204  181  182 2
   205  181  183 1
   206  183  184 1
   207  185  186 2
   208  185  187 1
   209  187  188 1
   210  189  190 2
   211  189  191 1
   212  191  192 1
