CHEMBL414850
  -OEChem-02152218473D

 49 52  0     1  0  0  0  0  0999 V2000
   14.7832  -27.7655  -11.3069 C   0  0  0  0  0  0  0  0  0  0  0  0
   13.6555  -27.2184  -11.9005 C   0  0  0  0  0  0  0  0  0  0  0  0
    4.8440  -26.9069  -10.2865 C   0  0  0  0  0  0  0  0  0  0  0  0
    5.6345  -27.7424   -8.1618 C   0  0  0  0  0  0  0  0  0  0  0  0
    3.9666  -27.9867  -10.3847 C   0  0  0  0  0  0  0  0  0  0  0  0
    4.7570  -28.8223   -8.2600 C   0  0  0  0  0  0  0  0  0  0  0  0
   14.6983  -28.1124   -9.9725 C   0  0  0  0  0  0  0  0  0  0  0  0
   12.4886  -27.0377  -11.1450 C   0  0  0  0  0  0  0  0  0  0  0  0
    5.6780  -26.7848   -9.1751 C   0  0  0  0  0  0  0  0  0  0  0  0
   12.4953  -27.4209   -9.7922 C   0  0  0  0  0  0  0  0  0  0  0  0
   11.3295  -27.2339   -9.0620 C   0  0  0  0  0  0  0  0  0  0  0  0
    3.9230  -28.9444   -9.3715 C   0  0  0  0  0  0  0  0  0  0  0  0
   10.2163  -26.6842   -9.6835 C   0  0  0  0  0  0  0  0  0  0  0  0
   11.3182  -26.4927  -11.6787 C   0  0  0  0  0  0  0  0  0  0  0  0
    8.9764  -26.4732   -8.9511 C   0  0  0  0  0  0  0  0  0  0  0  0
    9.2865  -26.9959  -14.2810 C   0  0  0  0  0  0  0  0  0  0  0  0
    8.8570  -25.6139  -14.7739 C   0  0  0  0  0  0  0  0  0  0  0  0
   10.7923  -27.0933  -14.0479 C   0  0  0  0  0  0  0  0  0  0  0  0
    9.1862  -24.5115  -13.7766 C   0  0  0  0  0  0  0  0  0  0  0  0
    6.6222  -25.6223   -9.0684 C   0  0  0  0  0  0  0  0  0  0  0  0
   13.5891  -27.9521   -9.2133 N   0  0  0  0  0  0  0  0  0  0  0  0
   10.1805  -26.3076  -10.9774 N   0  0  0  0  0  0  0  0  0  0  0  0
   11.2385  -26.0780  -13.0572 N   0  0  1  0  0  0  0  0  0  0  0  0
    7.9080  -25.9137   -9.6605 N   0  0  0  0  0  0  0  0  0  0  0  0
    8.8995  -26.7649   -7.7450 O   0  0  0  0  0  0  0  0  0  0  0  0
   11.5986  -24.1057  -14.6671 O   0  0  0  0  0  0  0  0  0  0  0  0
   11.1272  -23.6056  -12.2468 O   0  0  0  0  0  0  0  0  0  0  0  0
   11.2791  -27.5878   -7.7466 O   0  0  0  0  0  0  0  0  0  0  0  0
    3.0785  -29.9800   -9.4644 F   0  0  0  0  0  0  0  0  0  0  0  0
   10.9330  -24.4357  -13.4196 S   0  0  0  0  0  0  0  0  0  0  0  0
   15.6973  -27.9161  -11.8692 H   0  0  0  0  0  0  0  0  0  0  0  0
   13.7049  -26.9386  -12.9495 H   0  0  0  0  0  0  0  0  0  0  0  0
    4.8713  -26.1662  -11.0814 H   0  0  0  0  0  0  0  0  0  0  0  0
    6.2804  -27.6554   -7.2920 H   0  0  0  0  0  0  0  0  0  0  0  0
    3.3168  -28.0816  -11.2495 H   0  0  0  0  0  0  0  0  0  0  0  0
    4.7231  -29.5683   -7.4716 H   0  0  0  0  0  0  0  0  0  0  0  0
   15.5498  -28.5433   -9.4563 H   0  0  0  0  0  0  0  0  0  0  0  0
    8.7525  -27.2317  -13.3518 H   0  0  0  0  0  0  0  0  0  0  0  0
    8.9893  -27.7486  -15.0205 H   0  0  0  0  0  0  0  0  0  0  0  0
    9.3409  -25.4046  -15.7373 H   0  0  0  0  0  0  0  0  0  0  0  0
    7.7751  -25.6188  -14.9582 H   0  0  0  0  0  0  0  0  0  0  0  0
   11.0226  -28.1018  -13.6678 H   0  0  0  0  0  0  0  0  0  0  0  0
   11.3471  -26.9731  -14.9924 H   0  0  0  0  0  0  0  0  0  0  0  0
    8.8991  -23.5335  -14.1742 H   0  0  0  0  0  0  0  0  0  0  0  0
    8.6628  -24.6652  -12.8278 H   0  0  0  0  0  0  0  0  0  0  0  0
    6.2098  -24.7423   -9.5738 H   0  0  0  0  0  0  0  0  0  0  0  0
    6.7902  -25.3473   -8.0218 H   0  0  0  0  0  0  0  0  0  0  0  0
    8.0446  -25.6360  -10.6269 H   0  0  0  0  0  0  0  0  0  0  0  0
   12.1320  -27.9543   -7.4661 H   0  0  0  0  0  0  0  0  0  0  0  0
  1  2  2  0  0  0  0
  1  7  1  0  0  0  0
  2  8  1  0  0  0  0
  3  5  2  0  0  0  0
  3  9  1  0  0  0  0
  4  6  1  0  0  0  0
  4  9  2  0  0  0  0
  5 12  1  0  0  0  0
  6 12  2  0  0  0  0
  7 21  2  0  0  0  0
  8 10  1  0  0  0  0
  8 14  2  0  0  0  0
  9 20  1  0  0  0  0
 10 11  2  0  0  0  0
 10 21  1  0  0  0  0
 11 13  1  0  0  0  0
 11 28  1  0  0  0  0
 12 29  1  0  0  0  0
 13 15  1  0  0  0  0
 13 22  2  0  0  0  0
 14 22  1  0  0  0  0
 14 23  1  0  0  0  0
 15 24  1  0  0  0  0
 15 25  2  0  0  0  0
 16 17  1  0  0  0  0
 16 18  1  0  0  0  0
 17 19  1  0  0  0  0
 18 23  1  0  0  0  0
 19 30  1  0  0  0  0
 20 24  1  0  0  0  0
 23 30  1  0  0  0  0
 26 30  2  0  0  0  0
 27 30  2  0  0  0  0
  1 31  1  0  0  0  0
  2 32  1  0  0  0  0
  3 33  1  0  0  0  0
  4 34  1  0  0  0  0
  5 35  1  0  0  0  0
  6 36  1  0  0  0  0
  7 37  1  0  0  0  0
 16 38  1  0  0  0  0
 16 39  1  0  0  0  0
 17 40  1  0  0  0  0
 17 41  1  0  0  0  0
 18 42  1  0  0  0  0
 18 43  1  0  0  0  0
 19 44  1  0  0  0  0
 19 45  1  0  0  0  0
 20 46  1  0  0  0  0
 20 47  1  0  0  0  0
 24 48  1  0  0  0  0
 28 49  1  0  0  0  0
M  END
> <Hybrid2>
-3.0772600173950195

> <Hybrid2>
-3.077260

$$$$
CHEMBL414850
  -OEChem-02152218473D

 49 52  0     1  0  0  0  0  0999 V2000
   15.2279  -28.0819  -10.8479 C   0  0  0  0  0  0  0  0  0  0  0  0
   14.1601  -27.6050  -11.5935 C   0  0  0  0  0  0  0  0  0  0  0  0
    5.3166  -26.5848  -10.5468 C   0  0  0  0  0  0  0  0  0  0  0  0
    5.9637  -27.0396   -8.2639 C   0  0  0  0  0  0  0  0  0  0  0  0
    4.3855  -27.6217  -10.4894 C   0  0  0  0  0  0  0  0  0  0  0  0
    5.0325  -28.0765   -8.2065 C   0  0  0  0  0  0  0  0  0  0  0  0
   15.0644  -28.1660   -9.4789 C   0  0  0  0  0  0  0  0  0  0  0  0
   12.9727  -27.2308  -10.9495 C   0  0  0  0  0  0  0  0  0  0  0  0
    6.1058  -26.2937   -9.4340 C   0  0  0  0  0  0  0  0  0  0  0  0
   12.8976  -27.3513   -9.5506 C   0  0  0  0  0  0  0  0  0  0  0  0
   11.7126  -26.9756   -8.9325 C   0  0  0  0  0  0  0  0  0  0  0  0
    4.2434  -28.3676   -9.3193 C   0  0  0  0  0  0  0  0  0  0  0  0
   10.6608  -26.5021   -9.7051 C   0  0  0  0  0  0  0  0  0  0  0  0
   11.8595  -26.7426  -11.6381 C   0  0  0  0  0  0  0  0  0  0  0  0
    9.4032  -26.0991   -9.0933 C   0  0  0  0  0  0  0  0  0  0  0  0
    9.9209  -27.6336  -14.2074 C   0  0  0  0  0  0  0  0  0  0  0  0
    9.5917  -26.3512  -14.9720 C   0  0  0  0  0  0  0  0  0  0  0  0
   11.4071  -27.7551  -13.8789 C   0  0  0  0  0  0  0  0  0  0  0  0
    9.9372  -25.0967  -14.1813 C   0  0  0  0  0  0  0  0  0  0  0  0
    7.1077  -25.1772   -9.4948 C   0  0  0  0  0  0  0  0  0  0  0  0
   13.9331  -27.8137   -8.8243 N   0  0  0  0  0  0  0  0  0  0  0  0
   10.7037  -26.3756  -11.0465 N   0  0  0  0  0  0  0  0  0  0  0  0
   11.8647  -26.5927  -13.0721 N   0  0  1  0  0  0  0  0  0  0  0  0
    8.4003  -25.6348   -9.9515 N   0  0  0  0  0  0  0  0  0  0  0  0
    9.2563  -26.1537   -7.8599 O   0  0  0  0  0  0  0  0  0  0  0  0
   12.4058  -24.9790  -14.9995 O   0  0  0  0  0  0  0  0  0  0  0  0
   11.8556  -24.0092  -12.7441 O   0  0  0  0  0  0  0  0  0  0  0  0
   11.5840  -27.0718   -7.5788 O   0  0  0  0  0  0  0  0  0  0  0  0
    3.3473  -29.3617   -9.2632 F   0  0  0  0  0  0  0  0  0  0  0  0
   11.6678  -25.0361  -13.7503 S   0  0  0  0  0  0  0  0  0  0  0  0
   16.1564  -28.3784  -11.3219 H   0  0  0  0  0  0  0  0  0  0  0  0
   14.2719  -27.5311  -12.6721 H   0  0  0  0  0  0  0  0  0  0  0  0
    5.4207  -26.0097  -11.4631 H   0  0  0  0  0  0  0  0  0  0  0  0
    6.5740  -26.8198   -7.3918 H   0  0  0  0  0  0  0  0  0  0  0  0
    3.7707  -27.8480  -11.3554 H   0  0  0  0  0  0  0  0  0  0  0  0
    4.9219  -28.6576   -7.2959 H   0  0  0  0  0  0  0  0  0  0  0  0
   15.8666  -28.5307   -8.8460 H   0  0  0  0  0  0  0  0  0  0  0  0
    9.3336  -27.6644  -13.2810 H   0  0  0  0  0  0  0  0  0  0  0  0
    9.6155  -28.4978  -14.8087 H   0  0  0  0  0  0  0  0  0  0  0  0
   10.1290  -26.3504  -15.9297 H   0  0  0  0  0  0  0  0  0  0  0  0
    8.5205  -26.3405  -15.2105 H   0  0  0  0  0  0  0  0  0  0  0  0
   11.5635  -28.6831  -13.3055 H   0  0  0  0  0  0  0  0  0  0  0  0
   12.0093  -27.8414  -14.7977 H   0  0  0  0  0  0  0  0  0  0  0  0
    9.7232  -24.1992  -14.7692 H   0  0  0  0  0  0  0  0  0  0  0  0
    9.3643  -25.0438  -13.2503 H   0  0  0  0  0  0  0  0  0  0  0  0
    6.7681  -24.3904  -10.1771 H   0  0  0  0  0  0  0  0  0  0  0  0
    7.2440  -24.7175   -8.5103 H   0  0  0  0  0  0  0  0  0  0  0  0
    8.5952  -25.5514  -10.9439 H   0  0  0  0  0  0  0  0  0  0  0  0
   12.4017  -27.4180   -7.1891 H   0  0  0  0  0  0  0  0  0  0  0  0
  1  2  2  0  0  0  0
  1  7  1  0  0  0  0
  2  8  1  0  0  0  0
  3  5  2  0  0  0  0
  3  9  1  0  0  0  0
  4  6  1  0  0  0  0
  4  9  2  0  0  0  0
  5 12  1  0  0  0  0
  6 12  2  0  0  0  0
  7 21  2  0  0  0  0
  8 10  1  0  0  0  0
  8 14  2  0  0  0  0
  9 20  1  0  0  0  0
 10 11  2  0  0  0  0
 10 21  1  0  0  0  0
 11 13  1  0  0  0  0
 11 28  1  0  0  0  0
 12 29  1  0  0  0  0
 13 15  1  0  0  0  0
 13 22  2  0  0  0  0
 14 22  1  0  0  0  0
 14 23  1  0  0  0  0
 15 24  1  0  0  0  0
 15 25  2  0  0  0  0
 16 17  1  0  0  0  0
 16 18  1  0  0  0  0
 17 19  1  0  0  0  0
 18 23  1  0  0  0  0
 19 30  1  0  0  0  0
 20 24  1  0  0  0  0
 23 30  1  0  0  0  0
 26 30  2  0  0  0  0
 27 30  2  0  0  0  0
  1 31  1  0  0  0  0
  2 32  1  0  0  0  0
  3 33  1  0  0  0  0
  4 34  1  0  0  0  0
  5 35  1  0  0  0  0
  6 36  1  0  0  0  0
  7 37  1  0  0  0  0
 16 38  1  0  0  0  0
 16 39  1  0  0  0  0
 17 40  1  0  0  0  0
 17 41  1  0  0  0  0
 18 42  1  0  0  0  0
 18 43  1  0  0  0  0
 19 44  1  0  0  0  0
 19 45  1  0  0  0  0
 20 46  1  0  0  0  0
 20 47  1  0  0  0  0
 24 48  1  0  0  0  0
 28 49  1  0  0  0  0
M  END
> <Hybrid2>
-3.0772600173950195

> <Hybrid2>
-1.885105

$$$$
CHEMBL198001
  -OEChem-02152218473D

 39 41  0     0  0  0  0  0  0999 V2000
    7.3691  -24.0876  -10.3211 C   0  0  0  0  0  0  0  0  0  0  0  0
    6.4990  -24.6521   -9.3905 C   0  0  0  0  0  0  0  0  0  0  0  0
    8.5646  -24.7290  -10.6650 C   0  0  0  0  0  0  0  0  0  0  0  0
    5.5368  -29.3133   -7.8149 C   0  0  0  0  0  0  0  0  0  0  0  0
    7.0958  -30.2325   -9.4153 C   0  0  0  0  0  0  0  0  0  0  0  0
    6.7943  -25.8719   -8.7751 C   0  0  0  0  0  0  0  0  0  0  0  0
    4.5101  -30.0690   -8.3809 C   0  0  0  0  0  0  0  0  0  0  0  0
    6.0692  -30.9883   -9.9814 C   0  0  0  0  0  0  0  0  0  0  0  0
    9.7350  -27.9165   -9.3119 C   0  0  0  0  0  0  0  0  0  0  0  0
    8.8837  -25.9597  -10.0575 C   0  0  0  0  0  0  0  0  0  0  0  0
    9.9779  -26.8633  -10.1632 C   0  0  0  0  0  0  0  0  0  0  0  0
    6.8296  -29.3950   -8.3321 C   0  0  0  0  0  0  0  0  0  0  0  0
    7.9929  -26.5017   -9.1285 C   0  0  0  0  0  0  0  0  0  0  0  0
    4.7763  -30.9065   -9.4642 C   0  0  0  0  0  0  0  0  0  0  0  0
   12.3588  -27.2669  -10.6483 C   0  0  0  0  0  0  0  0  0  0  0  0
   11.1249  -26.7453  -10.9785 C   0  0  0  0  0  0  0  0  0  0  0  0
   13.5897  -27.1616  -11.4684 C   0  0  0  0  0  0  0  0  0  0  0  0
   14.8151  -27.8091  -10.9024 C   0  0  0  0  0  0  0  0  0  0  0  0
    7.9379  -28.5806   -7.7214 C   0  0  0  0  0  0  0  0  0  0  0  0
    8.5353  -27.6895   -8.6925 N   0  0  0  0  0  0  0  0  0  0  0  0
   13.6963  -26.5815  -12.5355 O   0  0  0  0  0  0  0  0  0  0  0  0
   14.8071  -28.3863   -9.8345 O   0  0  0  0  0  0  0  0  0  0  0  0
   10.9628  -26.0311  -12.1792 O   0  0  0  0  0  0  0  0  0  0  0  0
   15.8497  -27.6115  -11.7302 O   0  0  0  0  0  0  0  0  0  0  0  0
    3.7910  -31.6343  -10.0061 F   0  0  0  0  0  0  0  0  0  0  0  0
    7.1177  -23.1386  -10.7867 H   0  0  0  0  0  0  0  0  0  0  0  0
    5.5759  -24.1368   -9.1382 H   0  0  0  0  0  0  0  0  0  0  0  0
    9.2313  -24.2740  -11.3920 H   0  0  0  0  0  0  0  0  0  0  0  0
    5.3195  -28.6630   -6.9716 H   0  0  0  0  0  0  0  0  0  0  0  0
    8.1002  -30.3029   -9.8248 H   0  0  0  0  0  0  0  0  0  0  0  0
    6.1131  -26.3070   -8.0512 H   0  0  0  0  0  0  0  0  0  0  0  0
    3.5037  -30.0060   -7.9780 H   0  0  0  0  0  0  0  0  0  0  0  0
    6.2759  -31.6401  -10.8250 H   0  0  0  0  0  0  0  0  0  0  0  0
   10.3109  -28.8070   -9.0940 H   0  0  0  0  0  0  0  0  0  0  0  0
   12.4650  -27.7980   -9.7062 H   0  0  0  0  0  0  0  0  0  0  0  0
    7.5700  -27.9771   -6.8827 H   0  0  0  0  0  0  0  0  0  0  0  0
    8.7274  -29.2259   -7.3173 H   0  0  0  0  0  0  0  0  0  0  0  0
   11.7992  -26.0207  -12.6375 H   0  0  0  0  0  0  0  0  0  0  0  0
   16.6814  -28.0007  -11.3852 H   0  0  0  0  0  0  0  0  0  0  0  0
  1  2  1  0  0  0  0
  1  3  2  0  0  0  0
  2  6  2  0  0  0  0
  3 10  1  0  0  0  0
  4  7  2  0  0  0  0
  4 12  1  0  0  0  0
  5  8  1  0  0  0  0
  5 12  2  0  0  0  0
  6 13  1  0  0  0  0
  7 14  1  0  0  0  0
  8 14  2  0  0  0  0
  9 11  2  0  0  0  0
  9 20  1  0  0  0  0
 10 11  1  0  0  0  0
 10 13  2  0  0  0  0
 11 16  1  0  0  0  0
 12 19  1  0  0  0  0
 13 20  1  0  0  0  0
 14 25  1  0  0  0  0
 15 16  2  0  0  0  0
 15 17  1  0  0  0  0
 16 23  1  0  0  0  0
 17 18  1  0  0  0  0
 17 21  2  0  0  0  0
 18 22  2  0  0  0  0
 18 24  1  0  0  0  0
 19 20  1  0  0  0  0
  1 26  1  0  0  0  0
  2 27  1  0  0  0  0
  3 28  1  0  0  0  0
  4 29  1  0  0  0  0
  5 30  1  0  0  0  0
  6 31  1  0  0  0  0
  7 32  1  0  0  0  0
  8 33  1  0  0  0  0
  9 34  1  0  0  0  0
 15 35  1  0  0  0  0
 19 36  1  0  0  0  0
 19 37  1  0  0  0  0
 23 38  1  0  0  0  0
 24 39  1  0  0  0  0
M  END
> <Hybrid2>
-6.828657150268555

> <Hybrid2>
-6.828657

$$$$
CHEMBL198001
  -OEChem-02152218473D

 39 41  0     0  0  0  0  0  0999 V2000
    7.5255  -23.7305  -10.6401 C   0  0  0  0  0  0  0  0  0  0  0  0
    6.5523  -24.1819   -9.7507 C   0  0  0  0  0  0  0  0  0  0  0  0
    8.6932  -24.4700  -10.8600 C   0  0  0  0  0  0  0  0  0  0  0  0
    5.1455  -28.6723   -8.0207 C   0  0  0  0  0  0  0  0  0  0  0  0
    6.7452  -29.7829   -9.4507 C   0  0  0  0  0  0  0  0  0  0  0  0
    6.7138  -25.3832   -9.0544 C   0  0  0  0  0  0  0  0  0  0  0  0
    4.1104  -29.3863   -8.6242 C   0  0  0  0  0  0  0  0  0  0  0  0
    5.7100  -30.4970  -10.0541 C   0  0  0  0  0  0  0  0  0  0  0  0
    9.5303  -27.6502   -9.2643 C   0  0  0  0  0  0  0  0  0  0  0  0
    8.8782  -25.6842  -10.1692 C   0  0  0  0  0  0  0  0  0  0  0  0
    9.9091  -26.6648  -10.1465 C   0  0  0  0  0  0  0  0  0  0  0  0
    6.4630  -28.8705   -8.4340 C   0  0  0  0  0  0  0  0  0  0  0  0
    7.8862  -26.1118   -9.2842 C   0  0  0  0  0  0  0  0  0  0  0  0
    4.3926  -30.2987   -9.6409 C   0  0  0  0  0  0  0  0  0  0  0  0
   12.2834  -27.2561  -10.4294 C   0  0  0  0  0  0  0  0  0  0  0  0
   11.1173  -26.6706  -10.8777 C   0  0  0  0  0  0  0  0  0  0  0  0
   13.5744  -27.2806  -11.1584 C   0  0  0  0  0  0  0  0  0  0  0  0
   14.7061  -27.9779  -10.4697 C   0  0  0  0  0  0  0  0  0  0  0  0
    7.5804  -28.1011   -7.7829 C   0  0  0  0  0  0  0  0  0  0  0  0
    8.3087  -27.3080   -8.7495 N   0  0  0  0  0  0  0  0  0  0  0  0
   13.7990  -26.7690  -12.2422 O   0  0  0  0  0  0  0  0  0  0  0  0
   14.5797  -28.4933   -9.3779 O   0  0  0  0  0  0  0  0  0  0  0  0
   11.0938  -26.0145  -12.1215 O   0  0  0  0  0  0  0  0  0  0  0  0
   15.8090  -27.8975  -11.2258 O   0  0  0  0  0  0  0  0  0  0  0  0
    3.3989  -30.9864  -10.2186 F   0  0  0  0  0  0  0  0  0  0  0  0
    7.3773  -22.7937  -11.1702 H   0  0  0  0  0  0  0  0  0  0  0  0
    5.6530  -23.5917   -9.5951 H   0  0  0  0  0  0  0  0  0  0  0  0
    9.4415  -24.1025  -11.5564 H   0  0  0  0  0  0  0  0  0  0  0  0
    4.9157  -27.9630   -7.2299 H   0  0  0  0  0  0  0  0  0  0  0  0
    7.7687  -29.9442   -9.7790 H   0  0  0  0  0  0  0  0  0  0  0  0
    5.9527  -25.7301   -8.3632 H   0  0  0  0  0  0  0  0  0  0  0  0
    3.0849  -29.2326   -8.3021 H   0  0  0  0  0  0  0  0  0  0  0  0
    5.9293  -31.2070  -10.8460 H   0  0  0  0  0  0  0  0  0  0  0  0
   10.0233  -28.5646   -8.9592 H   0  0  0  0  0  0  0  0  0  0  0  0
   12.2830  -27.7403   -9.4566 H   0  0  0  0  0  0  0  0  0  0  0  0
    7.1976  -27.4285   -7.0057 H   0  0  0  0  0  0  0  0  0  0  0  0
    8.2901  -28.7755   -7.2885 H   0  0  0  0  0  0  0  0  0  0  0  0
   11.9596  -26.0866  -12.5152 H   0  0  0  0  0  0  0  0  0  0  0  0
   16.5836  -28.3228  -10.7999 H   0  0  0  0  0  0  0  0  0  0  0  0
  1  2  1  0  0  0  0
  1  3  2  0  0  0  0
  2  6  2  0  0  0  0
  3 10  1  0  0  0  0
  4  7  2  0  0  0  0
  4 12  1  0  0  0  0
  5  8  1  0  0  0  0
  5 12  2  0  0  0  0
  6 13  1  0  0  0  0
  7 14  1  0  0  0  0
  8 14  2  0  0  0  0
  9 11  2  0  0  0  0
  9 20  1  0  0  0  0
 10 11  1  0  0  0  0
 10 13  2  0  0  0  0
 11 16  1  0  0  0  0
 12 19  1  0  0  0  0
 13 20  1  0  0  0  0
 14 25  1  0  0  0  0
 15 16  2  0  0  0  0
 15 17  1  0  0  0  0
 16 23  1  0  0  0  0
 17 18  1  0  0  0  0
 17 21  2  0  0  0  0
 18 22  2  0  0  0  0
 18 24  1  0  0  0  0
 19 20  1  0  0  0  0
  1 26  1  0  0  0  0
  2 27  1  0  0  0  0
  3 28  1  0  0  0  0
  4 29  1  0  0  0  0
  5 30  1  0  0  0  0
  6 31  1  0  0  0  0
  7 32  1  0  0  0  0
  8 33  1  0  0  0  0
  9 34  1  0  0  0  0
 15 35  1  0  0  0  0
 19 36  1  0  0  0  0
 19 37  1  0  0  0  0
 23 38  1  0  0  0  0
 24 39  1  0  0  0  0
M  END
> <Hybrid2>
-6.828657150268555

> <Hybrid2>
-6.770183

$$$$
CHEMBL196391
  -OEChem-02152218473D

 43 45  0     0  0  0  0  0  0999 V2000
    5.1348  -28.9157   -7.6771 C   0  0  0  0  0  0  0  0  0  0  0  0
    6.7544  -30.0610   -9.0563 C   0  0  0  0  0  0  0  0  0  0  0  0
    6.5490  -25.6485   -8.9699 C   0  0  0  0  0  0  0  0  0  0  0  0
    6.3266  -24.5069   -9.7451 C   0  0  0  0  0  0  0  0  0  0  0  0
    4.1198  -29.7115   -8.2081 C   0  0  0  0  0  0  0  0  0  0  0  0
    5.7394  -30.8569   -9.5873 C   0  0  0  0  0  0  0  0  0  0  0  0
    8.4585  -24.7872  -10.8736 C   0  0  0  0  0  0  0  0  0  0  0  0
    9.4523  -27.8109   -9.0764 C   0  0  0  0  0  0  0  0  0  0  0  0
    8.7048  -25.9412  -10.1035 C   0  0  0  0  0  0  0  0  0  0  0  0
    9.7754  -26.8759  -10.0326 C   0  0  0  0  0  0  0  0  0  0  0  0
    6.4521  -29.0903   -8.1013 C   0  0  0  0  0  0  0  0  0  0  0  0
    7.7463  -26.3444   -9.1713 C   0  0  0  0  0  0  0  0  0  0  0  0
    7.2652  -24.0810  -10.6829 C   0  0  0  0  0  0  0  0  0  0  0  0
    4.4221  -30.6821   -9.1631 C   0  0  0  0  0  0  0  0  0  0  0  0
   12.1673  -27.3894  -10.3193 C   0  0  0  0  0  0  0  0  0  0  0  0
   10.9707  -26.8847  -10.7849 C   0  0  0  0  0  0  0  0  0  0  0  0
   13.4460  -27.4132  -11.0696 C   0  0  0  0  0  0  0  0  0  0  0  0
   14.6169  -28.0138  -10.3558 C   0  0  0  0  0  0  0  0  0  0  0  0
    8.0176  -22.5796  -12.3667 C   0  0  0  0  0  0  0  0  0  0  0  0
    7.5477  -28.2326   -7.5283 C   0  0  0  0  0  0  0  0  0  0  0  0
    8.2266  -27.4821   -8.5627 N   0  0  0  0  0  0  0  0  0  0  0  0
   13.6312  -26.9709  -12.1907 O   0  0  0  0  0  0  0  0  0  0  0  0
   14.5301  -28.4553   -9.2284 O   0  0  0  0  0  0  0  0  0  0  0  0
   10.8993  -26.3196  -12.0708 O   0  0  0  0  0  0  0  0  0  0  0  0
   15.7030  -27.9425  -11.1369 O   0  0  0  0  0  0  0  0  0  0  0  0
    7.0191  -22.9641  -11.4242 O   0  0  0  0  0  0  0  0  0  0  0  0
    3.4478  -31.4483   -9.6711 F   0  0  0  0  0  0  0  0  0  0  0  0
    4.8894  -28.1615   -6.9340 H   0  0  0  0  0  0  0  0  0  0  0  0
    7.7779  -30.2044   -9.3926 H   0  0  0  0  0  0  0  0  0  0  0  0
    5.8144  -25.9759   -8.2418 H   0  0  0  0  0  0  0  0  0  0  0  0
    5.4039  -23.9474   -9.6092 H   0  0  0  0  0  0  0  0  0  0  0  0
    3.0944  -29.5761   -7.8775 H   0  0  0  0  0  0  0  0  0  0  0  0
    5.9743  -31.6123  -10.3312 H   0  0  0  0  0  0  0  0  0  0  0  0
    9.1830  -24.4452  -11.6080 H   0  0  0  0  0  0  0  0  0  0  0  0
    9.9879  -28.6805   -8.7174 H   0  0  0  0  0  0  0  0  0  0  0  0
   12.2030  -27.8032   -9.3151 H   0  0  0  0  0  0  0  0  0  0  0  0
    7.6971  -21.6754  -12.8899 H   0  0  0  0  0  0  0  0  0  0  0  0
    8.1761  -23.3905  -13.0822 H   0  0  0  0  0  0  0  0  0  0  0  0
    8.9503  -22.3786  -11.8344 H   0  0  0  0  0  0  0  0  0  0  0  0
    7.1509  -27.5219   -6.7931 H   0  0  0  0  0  0  0  0  0  0  0  0
    8.2929  -28.8412   -7.0016 H   0  0  0  0  0  0  0  0  0  0  0  0
   11.7607  -26.3843  -12.4754 H   0  0  0  0  0  0  0  0  0  0  0  0
   16.5015  -28.3050  -10.6973 H   0  0  0  0  0  0  0  0  0  0  0  0
  1  5  2  0  0  0  0
  1 11  1  0  0  0  0
  2  6  1  0  0  0  0
  2 11  2  0  0  0  0
  3  4  2  0  0  0  0
  3 12  1  0  0  0  0
  4 13  1  0  0  0  0
  5 14  1  0  0  0  0
  6 14  2  0  0  0  0
  7  9  1  0  0  0  0
  7 13  2  0  0  0  0
  8 10  2  0  0  0  0
  8 21  1  0  0  0  0
  9 10  1  0  0  0  0
  9 12  2  0  0  0  0
 10 16  1  0  0  0  0
 11 20  1  0  0  0  0
 12 21  1  0  0  0  0
 13 26  1  0  0  0  0
 14 27  1  0  0  0  0
 15 16  2  0  0  0  0
 15 17  1  0  0  0  0
 16 24  1  0  0  0  0
 17 18  1  0  0  0  0
 17 22  2  0  0  0  0
 18 23  2  0  0  0  0
 18 25  1  0  0  0  0
 19 26  1  0  0  0  0
 20 21  1  0  0  0  0
  1 28  1  0  0  0  0
  2 29  1  0  0  0  0
  3 30  1  0  0  0  0
  4 31  1  0  0  0  0
  5 32  1  0  0  0  0
  6 33  1  0  0  0  0
  7 34  1  0  0  0  0
  8 35  1  0  0  0  0
 15 36  1  0  0  0  0
 19 37  1  0  0  0  0
 19 38  1  0  0  0  0
 19 39  1  0  0  0  0
 20 40  1  0  0  0  0
 20 41  1  0  0  0  0
 24 42  1  0  0  0  0
 25 43  1  0  0  0  0
M  END
> <Hybrid2>
-6.325372219085693

> <Hybrid2>
-6.325372

$$$$
CHEMBL196391
  -OEChem-02152218473D

 43 45  0     0  0  0  0  0  0999 V2000
    5.1715  -29.2142   -7.8096 C   0  0  0  0  0  0  0  0  0  0  0  0
    6.7877  -30.1599   -9.3363 C   0  0  0  0  0  0  0  0  0  0  0  0
    6.5751  -25.7997   -8.6562 C   0  0  0  0  0  0  0  0  0  0  0  0
    6.3477  -24.5646   -9.2699 C   0  0  0  0  0  0  0  0  0  0  0  0
    4.1558  -29.9336   -8.4391 C   0  0  0  0  0  0  0  0  0  0  0  0
    5.7720  -30.8794   -9.9658 C   0  0  0  0  0  0  0  0  0  0  0  0
    8.4756  -24.6858  -10.4336 C   0  0  0  0  0  0  0  0  0  0  0  0
    9.4816  -27.9216   -9.0633 C   0  0  0  0  0  0  0  0  0  0  0  0
    8.7269  -25.9324   -9.8267 C   0  0  0  0  0  0  0  0  0  0  0  0
    9.7993  -26.8658   -9.8862 C   0  0  0  0  0  0  0  0  0  0  0  0
    6.4875  -29.3273   -8.2582 C   0  0  0  0  0  0  0  0  0  0  0  0
    7.7728  -26.4595   -8.9537 C   0  0  0  0  0  0  0  0  0  0  0  0
    7.2819  -24.0144  -10.1453 C   0  0  0  0  0  0  0  0  0  0  0  0
    4.4560  -30.7663   -9.5172 C   0  0  0  0  0  0  0  0  0  0  0  0
   12.1910  -27.3307  -10.2481 C   0  0  0  0  0  0  0  0  0  0  0  0
   10.9917  -26.7706  -10.6372 C   0  0  0  0  0  0  0  0  0  0  0  0
   13.4668  -27.2504  -10.9994 C   0  0  0  0  0  0  0  0  0  0  0  0
   14.6415  -27.9390  -10.3772 C   0  0  0  0  0  0  0  0  0  0  0  0
    8.0251  -22.2984  -11.6146 C   0  0  0  0  0  0  0  0  0  0  0  0
    7.5839  -28.5520   -7.5790 C   0  0  0  0  0  0  0  0  0  0  0  0
    8.2574  -27.6676   -8.5056 N   0  0  0  0  0  0  0  0  0  0  0  0
   13.6468  -26.6610  -12.0515 O   0  0  0  0  0  0  0  0  0  0  0  0
   14.5599  -28.5284   -9.3191 O   0  0  0  0  0  0  0  0  0  0  0  0
   10.9143  -26.0378  -11.8351 O   0  0  0  0  0  0  0  0  0  0  0  0
   15.7244  -27.7609  -11.1456 O   0  0  0  0  0  0  0  0  0  0  0  0
    7.0310  -22.8084  -10.7287 O   0  0  0  0  0  0  0  0  0  0  0  0
    3.4811  -31.4593  -10.1201 F   0  0  0  0  0  0  0  0  0  0  0  0
    4.9278  -28.5674   -6.9708 H   0  0  0  0  0  0  0  0  0  0  0  0
    7.8101  -30.2545   -9.6925 H   0  0  0  0  0  0  0  0  0  0  0  0
    5.8439  -26.2237   -7.9761 H   0  0  0  0  0  0  0  0  0  0  0  0
    5.4245  -24.0306   -9.0566 H   0  0  0  0  0  0  0  0  0  0  0  0
    3.1315  -29.8462   -8.0895 H   0  0  0  0  0  0  0  0  0  0  0  0
    6.0052  -31.5274  -10.8054 H   0  0  0  0  0  0  0  0  0  0  0  0
    9.1967  -24.2466  -11.1180 H   0  0  0  0  0  0  0  0  0  0  0  0
   10.0202  -28.8304   -8.8265 H   0  0  0  0  0  0  0  0  0  0  0  0
   12.2314  -27.8757   -9.3088 H   0  0  0  0  0  0  0  0  0  0  0  0
    7.7010  -21.3327  -12.0101 H   0  0  0  0  0  0  0  0  0  0  0  0
    8.1822  -23.0053  -12.4332 H   0  0  0  0  0  0  0  0  0  0  0  0
    8.9595  -22.1687  -11.0635 H   0  0  0  0  0  0  0  0  0  0  0  0
    7.1887  -27.9476   -6.7535 H   0  0  0  0  0  0  0  0  0  0  0  0
    8.3321  -29.2242   -7.1417 H   0  0  0  0  0  0  0  0  0  0  0  0
   11.7742  -26.0455  -12.2478 H   0  0  0  0  0  0  0  0  0  0  0  0
   16.5252  -28.1775  -10.7617 H   0  0  0  0  0  0  0  0  0  0  0  0
  1  5  2  0  0  0  0
  1 11  1  0  0  0  0
  2  6  1  0  0  0  0
  2 11  2  0  0  0  0
  3  4  2  0  0  0  0
  3 12  1  0  0  0  0
  4 13  1  0  0  0  0
  5 14  1  0  0  0  0
  6 14  2  0  0  0  0
  7  9  1  0  0  0  0
  7 13  2  0  0  0  0
  8 10  2  0  0  0  0
  8 21  1  0  0  0  0
  9 10  1  0  0  0  0
  9 12  2  0  0  0  0
 10 16  1  0  0  0  0
 11 20  1  0  0  0  0
 12 21  1  0  0  0  0
 13 26  1  0  0  0  0
 14 27  1  0  0  0  0
 15 16  2  0  0  0  0
 15 17  1  0  0  0  0
 16 24  1  0  0  0  0
 17 18  1  0  0  0  0
 17 22  2  0  0  0  0
 18 23  2  0  0  0  0
 18 25  1  0  0  0  0
 19 26  1  0  0  0  0
 20 21  1  0  0  0  0
  1 28  1  0  0  0  0
  2 29  1  0  0  0  0
  3 30  1  0  0  0  0
  4 31  1  0  0  0  0
  5 32  1  0  0  0  0
  6 33  1  0  0  0  0
  7 34  1  0  0  0  0
  8 35  1  0  0  0  0
 15 36  1  0  0  0  0
 19 37  1  0  0  0  0
 19 38  1  0  0  0  0
 19 39  1  0  0  0  0
 20 40  1  0  0  0  0
 20 41  1  0  0  0  0
 24 42  1  0  0  0  0
 25 43  1  0  0  0  0
M  END
> <Hybrid2>
-6.325372219085693

> <Hybrid2>
-6.167480

$$$$
CHEMBL210234
  -OEChem-02152218473D

 58 61  0     0  0  0  0  0  0999 V2000
   12.8465  -23.6317  -11.0991 C   0  0  0  0  0  0  0  0  0  0  0  0
   11.7164  -24.2285  -11.6379 C   0  0  0  0  0  0  0  0  0  0  0  0
    6.0833  -29.9863   -7.9323 C   0  0  0  0  0  0  0  0  0  0  0  0
    5.3968  -30.4210  -10.2076 C   0  0  0  0  0  0  0  0  0  0  0  0
    4.7589  -29.7227   -7.5830 C   0  0  0  0  0  0  0  0  0  0  0  0
    4.0723  -30.1575   -9.8582 C   0  0  0  0  0  0  0  0  0  0  0  0
   13.4320  -24.2417  -10.0068 C   0  0  0  0  0  0  0  0  0  0  0  0
   11.2132  -25.4072  -11.0702 C   0  0  0  0  0  0  0  0  0  0  0  0
    6.4023  -30.3353   -9.2446 C   0  0  0  0  0  0  0  0  0  0  0  0
   11.8762  -25.9566   -9.9586 C   0  0  0  0  0  0  0  0  0  0  0  0
   11.3618  -27.1243   -9.4118 C   0  0  0  0  0  0  0  0  0  0  0  0
    3.7534  -29.8084   -8.5459 C   0  0  0  0  0  0  0  0  0  0  0  0
   10.2293  -27.6990   -9.9728 C   0  0  0  0  0  0  0  0  0  0  0  0
   10.0801  -26.0601  -11.5614 C   0  0  0  0  0  0  0  0  0  0  0  0
    9.6615  -28.9232   -9.4274 C   0  0  0  0  0  0  0  0  0  0  0  0
    8.0402  -24.2363  -11.0989 C   0  0  0  0  0  0  0  0  0  0  0  0
    8.3391  -24.5892  -12.5011 C   0  0  0  0  0  0  0  0  0  0  0  0
    4.5184  -25.7361   -9.3117 C   0  0  0  0  0  0  0  0  0  0  0  0
    5.2827  -24.5107   -8.8183 C   0  0  0  0  0  0  0  0  0  0  0  0
    4.8763  -26.0455  -10.7627 C   0  0  0  0  0  0  0  0  0  0  0  0
    6.7836  -24.6833   -9.0264 C   0  0  0  0  0  0  0  0  0  0  0  0
    6.3868  -26.1787  -10.9557 C   0  0  0  0  0  0  0  0  0  0  0  0
    9.7721  -25.9358  -14.0631 C   0  0  0  0  0  0  0  0  0  0  0  0
    7.8276  -30.6199   -9.6212 C   0  0  0  0  0  0  0  0  0  0  0  0
   12.9735  -25.3789   -9.4334 N   0  0  0  0  0  0  0  0  0  0  0  0
    9.5731  -27.1954  -11.0372 N   0  0  0  0  0  0  0  0  0  0  0  0
    7.0974  -25.0065  -10.4215 N   0  0  0  0  0  0  0  0  0  0  0  0
    8.5196  -29.4288  -10.0583 N   0  0  0  0  0  0  0  0  0  0  0  0
    9.3778  -25.5115  -12.7094 N   0  0  0  0  0  0  0  0  0  0  0  0
   10.1725  -29.4661   -8.4326 O   0  0  0  0  0  0  0  0  0  0  0  0
    8.6477  -23.2819  -10.6106 O   0  0  0  0  0  0  0  0  0  0  0  0
    7.6588  -24.0435  -13.3692 O   0  0  0  0  0  0  0  0  0  0  0  0
   11.9645  -27.6999   -8.3330 O   0  0  0  0  0  0  0  0  0  0  0  0
    2.4811  -29.5580   -8.2100 F   0  0  0  0  0  0  0  0  0  0  0  0
   13.2548  -22.7207  -11.5203 H   0  0  0  0  0  0  0  0  0  0  0  0
   11.2461  -23.7589  -12.4977 H   0  0  0  0  0  0  0  0  0  0  0  0
    6.8600  -29.9162   -7.1753 H   0  0  0  0  0  0  0  0  0  0  0  0
    5.6358  -30.6926  -11.2324 H   0  0  0  0  0  0  0  0  0  0  0  0
    4.5104  -29.4516   -6.5613 H   0  0  0  0  0  0  0  0  0  0  0  0
    3.2893  -30.2237  -10.6077 H   0  0  0  0  0  0  0  0  0  0  0  0
   14.3185  -23.8197   -9.5443 H   0  0  0  0  0  0  0  0  0  0  0  0
    4.7493  -26.5998   -8.6785 H   0  0  0  0  0  0  0  0  0  0  0  0
    3.4398  -25.5542   -9.2293 H   0  0  0  0  0  0  0  0  0  0  0  0
    4.9354  -23.6225   -9.3523 H   0  0  0  0  0  0  0  0  0  0  0  0
    5.0768  -24.3535   -7.7550 H   0  0  0  0  0  0  0  0  0  0  0  0
    4.3833  -26.9769  -11.0769 H   0  0  0  0  0  0  0  0  0  0  0  0
    4.4915  -25.2497  -11.4147 H   0  0  0  0  0  0  0  0  0  0  0  0
    7.3110  -23.7506   -8.7856 H   0  0  0  0  0  0  0  0  0  0  0  0
    7.1603  -25.4514   -8.3433 H   0  0  0  0  0  0  0  0  0  0  0  0
    6.7440  -27.0912  -10.4715 H   0  0  0  0  0  0  0  0  0  0  0  0
    6.6332  -26.2496  -12.0200 H   0  0  0  0  0  0  0  0  0  0  0  0
    9.1877  -26.8207  -14.3553 H   0  0  0  0  0  0  0  0  0  0  0  0
    9.5801  -25.1186  -14.7739 H   0  0  0  0  0  0  0  0  0  0  0  0
   10.8435  -26.1849  -14.0716 H   0  0  0  0  0  0  0  0  0  0  0  0
    8.3765  -31.0352   -8.7690 H   0  0  0  0  0  0  0  0  0  0  0  0
    7.8808  -31.3545  -10.4315 H   0  0  0  0  0  0  0  0  0  0  0  0
    8.1070  -28.9114  -10.8276 H   0  0  0  0  0  0  0  0  0  0  0  0
   12.7368  -27.1787   -8.0641 H   0  0  0  0  0  0  0  0  0  0  0  0
  1  2  2  0  0  0  0
  1  7  1  0  0  0  0
  2  8  1  0  0  0  0
  3  5  2  0  0  0  0
  3  9  1  0  0  0  0
  4  6  1  0  0  0  0
  4  9  2  0  0  0  0
  5 12  1  0  0  0  0
  6 12  2  0  0  0  0
  7 25  2  0  0  0  0
  8 10  1  0  0  0  0
  8 14  2  0  0  0  0
  9 24  1  0  0  0  0
 10 11  2  0  0  0  0
 10 25  1  0  0  0  0
 11 13  1  0  0  0  0
 11 33  1  0  0  0  0
 12 34  1  0  0  0  0
 13 15  1  0  0  0  0
 13 26  2  0  0  0  0
 14 26  1  0  0  0  0
 14 29  1  0  0  0  0
 15 28  1  0  0  0  0
 15 30  2  0  0  0  0
 16 17  1  0  0  0  0
 16 27  1  0  0  0  0
 16 31  2  0  0  0  0
 17 29  1  0  0  0  0
 17 32  2  0  0  0  0
 18 19  1  0  0  0  0
 18 20  1  0  0  0  0
 19 21  1  0  0  0  0
 20 22  1  0  0  0  0
 21 27  1  0  0  0  0
 22 27  1  0  0  0  0
 23 29  1  0  0  0  0
 24 28  1  0  0  0  0
  1 35  1  0  0  0  0
  2 36  1  0  0  0  0
  3 37  1  0  0  0  0
  4 38  1  0  0  0  0
  5 39  1  0  0  0  0
  6 40  1  0  0  0  0
  7 41  1  0  0  0  0
 18 42  1  0  0  0  0
 18 43  1  0  0  0  0
 19 44  1  0  0  0  0
 19 45  1  0  0  0  0
 20 46  1  0  0  0  0
 20 47  1  0  0  0  0
 21 48  1  0  0  0  0
 21 49  1  0  0  0  0
 22 50  1  0  0  0  0
 22 51  1  0  0  0  0
 23 52  1  0  0  0  0
 23 53  1  0  0  0  0
 23 54  1  0  0  0  0
 24 55  1  0  0  0  0
 24 56  1  0  0  0  0
 28 57  1  0  0  0  0
 33 58  1  0  0  0  0
M  END
> <Hybrid2>
-0.7490347623825073

> <Hybrid2>
-0.749035

$$$$
CHEMBL210234
  -OEChem-02152218473D

 58 61  0     0  0  0  0  0  0999 V2000
    5.8447  -22.6581   -8.4053 C   0  0  0  0  0  0  0  0  0  0  0  0
    6.1319  -23.9337   -8.8678 C   0  0  0  0  0  0  0  0  0  0  0  0
   14.1673  -26.2150  -11.7060 C   0  0  0  0  0  0  0  0  0  0  0  0
   13.2709  -28.4585  -11.7149 C   0  0  0  0  0  0  0  0  0  0  0  0
   15.2097  -26.6347  -10.8797 C   0  0  0  0  0  0  0  0  0  0  0  0
   14.3133  -28.8783  -10.8886 C   0  0  0  0  0  0  0  0  0  0  0  0
    6.7404  -21.6515   -8.7094 C   0  0  0  0  0  0  0  0  0  0  0  0
    7.2972  -24.1583   -9.6138 C   0  0  0  0  0  0  0  0  0  0  0  0
   13.1978  -27.1269  -12.1236 C   0  0  0  0  0  0  0  0  0  0  0  0
    8.1506  -23.0718   -9.8748 C   0  0  0  0  0  0  0  0  0  0  0  0
    9.2990  -23.3157  -10.6156 C   0  0  0  0  0  0  0  0  0  0  0  0
   15.2827  -27.9663  -10.4710 C   0  0  0  0  0  0  0  0  0  0  0  0
    9.5598  -24.6030  -11.0654 C   0  0  0  0  0  0  0  0  0  0  0  0
    7.6477  -25.4165  -10.1096 C   0  0  0  0  0  0  0  0  0  0  0  0
   10.7532  -24.8970  -11.8452 C   0  0  0  0  0  0  0  0  0  0  0  0
    5.6404  -28.1020   -8.3319 C   0  0  0  0  0  0  0  0  0  0  0  0
    6.5223  -26.9336   -8.5255 C   0  0  0  0  0  0  0  0  0  0  0  0
    7.1283  -31.9608   -9.1931 C   0  0  0  0  0  0  0  0  0  0  0  0
    5.6466  -31.5997   -9.1356 C   0  0  0  0  0  0  0  0  0  0  0  0
    7.9800  -30.7099   -9.3907 C   0  0  0  0  0  0  0  0  0  0  0  0
    5.3842  -30.5393   -8.0715 C   0  0  0  0  0  0  0  0  0  0  0  0
    7.6753  -29.6467   -8.3356 C   0  0  0  0  0  0  0  0  0  0  0  0
    6.1966  -27.2836  -10.9909 C   0  0  0  0  0  0  0  0  0  0  0  0
   12.0760  -26.6759  -13.0137 C   0  0  0  0  0  0  0  0  0  0  0  0
    7.8742  -21.8323   -9.4265 N   0  0  0  0  0  0  0  0  0  0  0  0
    8.7610  -25.6632  -10.8309 N   0  0  0  0  0  0  0  0  0  0  0  0
    6.2338  -29.3608   -8.2684 N   0  0  0  0  0  0  0  0  0  0  0  0
   10.9324  -26.2228  -12.2550 N   0  0  0  0  0  0  0  0  0  0  0  0
    6.7815  -26.5549   -9.8531 N   0  0  0  0  0  0  0  0  0  0  0  0
   11.5728  -23.9992  -12.1054 O   0  0  0  0  0  0  0  0  0  0  0  0
    4.4303  -27.8912   -8.2338 O   0  0  0  0  0  0  0  0  0  0  0  0
    6.9602  -26.3929   -7.5106 O   0  0  0  0  0  0  0  0  0  0  0  0
   10.1621  -22.2989  -10.8974 O   0  0  0  0  0  0  0  0  0  0  0  0
   16.2852  -28.3701   -9.6796 F   0  0  0  0  0  0  0  0  0  0  0  0
    4.9503  -22.4591   -7.8270 H   0  0  0  0  0  0  0  0  0  0  0  0
    5.4352  -24.7348   -8.6358 H   0  0  0  0  0  0  0  0  0  0  0  0
   14.1183  -25.1752  -12.0186 H   0  0  0  0  0  0  0  0  0  0  0  0
   12.5203  -29.1762  -12.0355 H   0  0  0  0  0  0  0  0  0  0  0  0
   15.9648  -25.9251  -10.5551 H   0  0  0  0  0  0  0  0  0  0  0  0
   14.3703  -29.9148  -10.5698 H   0  0  0  0  0  0  0  0  0  0  0  0
    6.5669  -20.6340   -8.3742 H   0  0  0  0  0  0  0  0  0  0  0  0
    7.4241  -32.4711   -8.2698 H   0  0  0  0  0  0  0  0  0  0  0  0
    7.3043  -32.6604  -10.0194 H   0  0  0  0  0  0  0  0  0  0  0  0
    5.3208  -31.2318  -10.1119 H   0  0  0  0  0  0  0  0  0  0  0  0
    5.0591  -32.4955   -8.9117 H   0  0  0  0  0  0  0  0  0  0  0  0
    9.0463  -30.9751   -9.3464 H   0  0  0  0  0  0  0  0  0  0  0  0
    7.7995  -30.2960  -10.3921 H   0  0  0  0  0  0  0  0  0  0  0  0
    4.3419  -30.1971   -8.1240 H   0  0  0  0  0  0  0  0  0  0  0  0
    5.5297  -30.9759   -7.0781 H   0  0  0  0  0  0  0  0  0  0  0  0
    8.0421  -29.9760   -7.3600 H   0  0  0  0  0  0  0  0  0  0  0  0
    8.1808  -28.7070   -8.5802 H   0  0  0  0  0  0  0  0  0  0  0  0
    6.8737  -28.0959  -11.2939 H   0  0  0  0  0  0  0  0  0  0  0  0
    5.2255  -27.7072  -10.6948 H   0  0  0  0  0  0  0  0  0  0  0  0
    6.0532  -26.5922  -11.8343 H   0  0  0  0  0  0  0  0  0  0  0  0
   12.4015  -25.8517  -13.6577 H   0  0  0  0  0  0  0  0  0  0  0  0
   11.7430  -27.4882  -13.6683 H   0  0  0  0  0  0  0  0  0  0  0  0
   10.2645  -26.9281  -11.9613 H   0  0  0  0  0  0  0  0  0  0  0  0
    9.8379  -21.4693  -10.5139 H   0  0  0  0  0  0  0  0  0  0  0  0
  1  2  2  0  0  0  0
  1  7  1  0  0  0  0
  2  8  1  0  0  0  0
  3  5  2  0  0  0  0
  3  9  1  0  0  0  0
  4  6  1  0  0  0  0
  4  9  2  0  0  0  0
  5 12  1  0  0  0  0
  6 12  2  0  0  0  0
  7 25  2  0  0  0  0
  8 10  1  0  0  0  0
  8 14  2  0  0  0  0
  9 24  1  0  0  0  0
 10 11  2  0  0  0  0
 10 25  1  0  0  0  0
 11 13  1  0  0  0  0
 11 33  1  0  0  0  0
 12 34  1  0  0  0  0
 13 15  1  0  0  0  0
 13 26  2  0  0  0  0
 14 26  1  0  0  0  0
 14 29  1  0  0  0  0
 15 28  1  0  0  0  0
 15 30  2  0  0  0  0
 16 17  1  0  0  0  0
 16 27  1  0  0  0  0
 16 31  2  0  0  0  0
 17 29  1  0  0  0  0
 17 32  2  0  0  0  0
 18 19  1  0  0  0  0
 18 20  1  0  0  0  0
 19 21  1  0  0  0  0
 20 22  1  0  0  0  0
 21 27  1  0  0  0  0
 22 27  1  0  0  0  0
 23 29  1  0  0  0  0
 24 28  1  0  0  0  0
  1 35  1  0  0  0  0
  2 36  1  0  0  0  0
  3 37  1  0  0  0  0
  4 38  1  0  0  0  0
  5 39  1  0  0  0  0
  6 40  1  0  0  0  0
  7 41  1  0  0  0  0
 18 42  1  0  0  0  0
 18 43  1  0  0  0  0
 19 44  1  0  0  0  0
 19 45  1  0  0  0  0
 20 46  1  0  0  0  0
 20 47  1  0  0  0  0
 21 48  1  0  0  0  0
 21 49  1  0  0  0  0
 22 50  1  0  0  0  0
 22 51  1  0  0  0  0
 23 52  1  0  0  0  0
 23 53  1  0  0  0  0
 23 54  1  0  0  0  0
 24 55  1  0  0  0  0
 24 56  1  0  0  0  0
 28 57  1  0  0  0  0
 33 58  1  0  0  0  0
M  END
> <Hybrid2>
-0.7490347623825073

> <Hybrid2>
-0.679613

$$$$
CHEMBL212412
  -OEChem-02152218473D

 44 48  0     0  0  0  0  0  0999 V2000
    4.9239  -29.8909   -7.4666 C   0  0  0  0  0  0  0  0  0  0  0  0
    5.4810  -28.6582   -7.7757 C   0  0  0  0  0  0  0  0  0  0  0  0
   13.2244  -26.5196  -12.8963 C   0  0  0  0  0  0  0  0  0  0  0  0
   12.5674  -27.0847  -10.6410 C   0  0  0  0  0  0  0  0  0  0  0  0
   14.5140  -26.9836  -12.6369 C   0  0  0  0  0  0  0  0  0  0  0  0
   13.8570  -27.5488  -10.3816 C   0  0  0  0  0  0  0  0  0  0  0  0
    5.4421  -31.0037   -8.0980 C   0  0  0  0  0  0  0  0  0  0  0  0
    6.5309  -28.5689   -8.6983 C   0  0  0  0  0  0  0  0  0  0  0  0
    8.5823  -28.4664  -10.5116 C   0  0  0  0  0  0  0  0  0  0  0  0
    8.1463  -27.2687   -9.9406 C   0  0  0  0  0  0  0  0  0  0  0  0
   12.2511  -26.5701  -11.8983 C   0  0  0  0  0  0  0  0  0  0  0  0
    6.9946  -29.7717   -9.2947 C   0  0  0  0  0  0  0  0  0  0  0  0
    7.1086  -27.3243   -9.0239 C   0  0  0  0  0  0  0  0  0  0  0  0
    8.0359  -29.7030  -10.2127 C   0  0  0  0  0  0  0  0  0  0  0  0
   14.8303  -27.4982  -11.3796 C   0  0  0  0  0  0  0  0  0  0  0  0
    9.6834  -28.1594  -11.4457 C   0  0  0  0  0  0  0  0  0  0  0  0
    8.3288  -24.7766  -10.7377 C   0  0  0  0  0  0  0  0  0  0  0  0
    9.3226  -24.9464   -9.6215 C   0  0  0  0  0  0  0  0  0  0  0  0
    8.9476  -26.1245  -10.4802 C   0  0  0  0  0  0  0  0  0  0  0  0
    5.5962  -25.4909   -9.1093 C   0  0  0  0  0  0  0  0  0  0  0  0
   10.8626  -26.0716  -12.1770 C   0  0  0  0  0  0  0  0  0  0  0  0
    6.4540  -30.9664   -8.9946 N   0  0  0  0  0  0  0  0  0  0  0  0
    9.8683  -26.7766  -11.3993 N   0  0  0  0  0  0  0  0  0  0  0  0
   10.2788  -28.9935  -12.1037 O   0  0  0  0  0  0  0  0  0  0  0  0
    8.5094  -30.8325  -10.8067 O   0  0  0  0  0  0  0  0  0  0  0  0
    6.6526  -26.1780   -8.4428 O   0  0  0  0  0  0  0  0  0  0  0  0
   16.0679  -27.9463  -11.1313 F   0  0  0  0  0  0  0  0  0  0  0  0
    4.1112  -29.9764   -6.7550 H   0  0  0  0  0  0  0  0  0  0  0  0
    5.0810  -27.7744   -7.2844 H   0  0  0  0  0  0  0  0  0  0  0  0
   12.9876  -26.1197  -13.8787 H   0  0  0  0  0  0  0  0  0  0  0  0
   11.8155  -27.1283   -9.8574 H   0  0  0  0  0  0  0  0  0  0  0  0
   15.2715  -26.9450  -13.4139 H   0  0  0  0  0  0  0  0  0  0  0  0
   14.1038  -27.9491   -9.4028 H   0  0  0  0  0  0  0  0  0  0  0  0
    5.0451  -31.9929   -7.8945 H   0  0  0  0  0  0  0  0  0  0  0  0
    7.2928  -24.6064  -10.4723 H   0  0  0  0  0  0  0  0  0  0  0  0
    8.6454  -24.2106  -11.6055 H   0  0  0  0  0  0  0  0  0  0  0  0
   10.2983  -24.4931   -9.7492 H   0  0  0  0  0  0  0  0  0  0  0  0
    8.9564  -24.8905   -8.6039 H   0  0  0  0  0  0  0  0  0  0  0  0
    5.3278  -24.5961   -8.5424 H   0  0  0  0  0  0  0  0  0  0  0  0
    4.7303  -26.1516   -9.1993 H   0  0  0  0  0  0  0  0  0  0  0  0
    5.9351  -25.1996  -10.1064 H   0  0  0  0  0  0  0  0  0  0  0  0
   10.7809  -25.0048  -11.9415 H   0  0  0  0  0  0  0  0  0  0  0  0
   10.6070  -26.1916  -13.2351 H   0  0  0  0  0  0  0  0  0  0  0  0
    9.2315  -30.6140  -11.4172 H   0  0  0  0  0  0  0  0  0  0  0  0
  1  2  2  0  0  0  0
  1  7  1  0  0  0  0
  2  8  1  0  0  0  0
  3  5  2  0  0  0  0
  3 11  1  0  0  0  0
  4  6  1  0  0  0  0
  4 11  2  0  0  0  0
  5 15  1  0  0  0  0
  6 15  2  0  0  0  0
  7 22  2  0  0  0  0
  8 12  1  0  0  0  0
  8 13  2  0  0  0  0
  9 10  2  0  0  0  0
  9 14  1  0  0  0  0
  9 16  1  0  0  0  0
 10 13  1  0  0  0  0
 10 19  1  0  0  0  0
 11 21  1  0  0  0  0
 12 14  2  0  0  0  0
 12 22  1  0  0  0  0
 13 26  1  0  0  0  0
 14 25  1  0  0  0  0
 15 27  1  0  0  0  0
 16 23  1  0  0  0  0
 16 24  2  0  0  0  0
 17 18  1  0  0  0  0
 17 19  1  0  0  0  0
 18 19  1  0  0  0  0
 19 23  1  0  0  0  0
 20 26  1  0  0  0  0
 21 23  1  0  0  0  0
  1 28  1  0  0  0  0
  2 29  1  0  0  0  0
  3 30  1  0  0  0  0
  4 31  1  0  0  0  0
  5 32  1  0  0  0  0
  6 33  1  0  0  0  0
  7 34  1  0  0  0  0
 17 35  1  0  0  0  0
 17 36  1  0  0  0  0
 18 37  1  0  0  0  0
 18 38  1  0  0  0  0
 20 39  1  0  0  0  0
 20 40  1  0  0  0  0
 20 41  1  0  0  0  0
 21 42  1  0  0  0  0
 21 43  1  0  0  0  0
 25 44  1  0  0  0  0
M  END
> <Hybrid2>
-4.7044758796691895

> <Hybrid2>
-4.704476

$$$$
CHEMBL212412
  -OEChem-02152218473D

 44 48  0     0  0  0  0  0  0999 V2000
    4.4885  -29.3275   -7.3053 C   0  0  0  0  0  0  0  0  0  0  0  0
    5.1656  -28.1677   -7.6542 C   0  0  0  0  0  0  0  0  0  0  0  0
   13.3625  -27.0144  -12.3695 C   0  0  0  0  0  0  0  0  0  0  0  0
   12.5225  -27.3681  -10.1320 C   0  0  0  0  0  0  0  0  0  0  0  0
   14.5899  -27.5611  -11.9952 C   0  0  0  0  0  0  0  0  0  0  0  0
   13.7499  -27.9148   -9.7577 C   0  0  0  0  0  0  0  0  0  0  0  0
    4.9489  -30.5192   -7.8282 C   0  0  0  0  0  0  0  0  0  0  0  0
    6.2741  -28.2266   -8.5081 C   0  0  0  0  0  0  0  0  0  0  0  0
    8.4347  -28.4140  -10.1825 C   0  0  0  0  0  0  0  0  0  0  0  0
    8.0669  -27.1488   -9.7195 C   0  0  0  0  0  0  0  0  0  0  0  0
   12.3288  -26.9178  -11.4379 C   0  0  0  0  0  0  0  0  0  0  0  0
    6.6706  -29.5010   -8.9942 C   0  0  0  0  0  0  0  0  0  0  0  0
    6.9736  -27.0576   -8.8728 C   0  0  0  0  0  0  0  0  0  0  0  0
    7.7685  -29.5793   -9.8428 C   0  0  0  0  0  0  0  0  0  0  0  0
   14.7836  -28.0114  -10.6893 C   0  0  0  0  0  0  0  0  0  0  0  0
    9.6132  -28.2613  -11.0582 C   0  0  0  0  0  0  0  0  0  0  0  0
    8.5077  -24.7402  -10.6597 C   0  0  0  0  0  0  0  0  0  0  0  0
    9.4129  -24.9116   -9.4708 C   0  0  0  0  0  0  0  0  0  0  0  0
    8.9935  -26.1123  -10.2759 C   0  0  0  0  0  0  0  0  0  0  0  0
    5.6295  -25.1194   -9.1762 C   0  0  0  0  0  0  0  0  0  0  0  0
   11.0071  -26.3301  -11.8404 C   0  0  0  0  0  0  0  0  0  0  0  0
    6.0137  -30.6250   -8.6556 N   0  0  0  0  0  0  0  0  0  0  0  0
    9.9108  -26.8980  -11.0878 N   0  0  0  0  0  0  0  0  0  0  0  0
   10.1755  -29.1839  -11.6204 O   0  0  0  0  0  0  0  0  0  0  0  0
    8.1807  -30.7814  -10.3305 O   0  0  0  0  0  0  0  0  0  0  0  0
    6.5810  -25.8412   -8.3978 O   0  0  0  0  0  0  0  0  0  0  0  0
   15.9614  -28.5389  -10.3304 F   0  0  0  0  0  0  0  0  0  0  0  0
    3.6292  -29.2984   -6.6458 H   0  0  0  0  0  0  0  0  0  0  0  0
    4.8120  -27.2229   -7.2482 H   0  0  0  0  0  0  0  0  0  0  0  0
   13.2212  -26.6656  -13.3891 H   0  0  0  0  0  0  0  0  0  0  0  0
   11.7227  -27.2972   -9.3994 H   0  0  0  0  0  0  0  0  0  0  0  0
   15.3944  -27.6370  -12.7204 H   0  0  0  0  0  0  0  0  0  0  0  0
   13.9013  -28.2651   -8.7410 H   0  0  0  0  0  0  0  0  0  0  0  0
    4.4581  -31.4569   -7.5892 H   0  0  0  0  0  0  0  0  0  0  0  0
    7.4753  -24.4698  -10.4758 H   0  0  0  0  0  0  0  0  0  0  0  0
    8.9238  -24.2627  -11.5386 H   0  0  0  0  0  0  0  0  0  0  0  0
   10.4293  -24.5478   -9.5614 H   0  0  0  0  0  0  0  0  0  0  0  0
    8.9907  -24.7564   -8.4857 H   0  0  0  0  0  0  0  0  0  0  0  0
    5.4030  -24.1690   -8.6867 H   0  0  0  0  0  0  0  0  0  0  0  0
    4.7181  -25.7133   -9.2818 H   0  0  0  0  0  0  0  0  0  0  0  0
    6.0524  -24.9257  -10.1647 H   0  0  0  0  0  0  0  0  0  0  0  0
   11.0012  -25.2466  -11.6793 H   0  0  0  0  0  0  0  0  0  0  0  0
   10.8079  -26.5021  -12.9034 H   0  0  0  0  0  0  0  0  0  0  0  0
    8.9549  -30.6641  -10.9038 H   0  0  0  0  0  0  0  0  0  0  0  0
  1  2  2  0  0  0  0
  1  7  1  0  0  0  0
  2  8  1  0  0  0  0
  3  5  2  0  0  0  0
  3 11  1  0  0  0  0
  4  6  1  0  0  0  0
  4 11  2  0  0  0  0
  5 15  1  0  0  0  0
  6 15  2  0  0  0  0
  7 22  2  0  0  0  0
  8 12  1  0  0  0  0
  8 13  2  0  0  0  0
  9 10  2  0  0  0  0
  9 14  1  0  0  0  0
  9 16  1  0  0  0  0
 10 13  1  0  0  0  0
 10 19  1  0  0  0  0
 11 21  1  0  0  0  0
 12 14  2  0  0  0  0
 12 22  1  0  0  0  0
 13 26  1  0  0  0  0
 14 25  1  0  0  0  0
 15 27  1  0  0  0  0
 16 23  1  0  0  0  0
 16 24  2  0  0  0  0
 17 18  1  0  0  0  0
 17 19  1  0  0  0  0
 18 19  1  0  0  0  0
 19 23  1  0  0  0  0
 20 26  1  0  0  0  0
 21 23  1  0  0  0  0
  1 28  1  0  0  0  0
  2 29  1  0  0  0  0
  3 30  1  0  0  0  0
  4 31  1  0  0  0  0
  5 32  1  0  0  0  0
  6 33  1  0  0  0  0
  7 34  1  0  0  0  0
 17 35  1  0  0  0  0
 17 36  1  0  0  0  0
 18 37  1  0  0  0  0
 18 38  1  0  0  0  0
 20 39  1  0  0  0  0
 20 40  1  0  0  0  0
 20 41  1  0  0  0  0
 21 42  1  0  0  0  0
 21 43  1  0  0  0  0
 25 44  1  0  0  0  0
M  END
> <Hybrid2>
-4.7044758796691895

> <Hybrid2>
-4.447022

$$$$
CHEMBL204656
  -OEChem-02152218473D

 54 56  0     1  0  0  0  0  0999 V2000
    6.0116  -30.2091   -9.4560 C   0  0  0  0  0  0  0  0  0  0  0  0
    7.0518  -29.3317   -9.1495 C   0  0  0  0  0  0  0  0  0  0  0  0
    4.6978  -29.7432   -9.5052 C   0  0  0  0  0  0  0  0  0  0  0  0
   10.2586  -27.2720   -9.3573 C   0  0  0  0  0  0  0  0  0  0  0  0
    9.5676  -26.3796  -11.9075 C   0  0  0  0  0  0  0  0  0  0  0  0
   11.2329  -27.1701  -10.3595 C   0  0  0  0  0  0  0  0  0  0  0  0
    6.7781  -27.9884   -8.8922 C   0  0  0  0  0  0  0  0  0  0  0  0
    8.9400  -26.9264   -9.6356 C   0  0  0  0  0  0  0  0  0  0  0  0
   10.9097  -26.7203  -11.6612 C   0  0  0  0  0  0  0  0  0  0  0  0
    8.5952  -26.4814  -10.9073 C   0  0  0  0  0  0  0  0  0  0  0  0
    5.4642  -27.5225   -8.9413 C   0  0  0  0  0  0  0  0  0  0  0  0
    4.4241  -28.3999   -9.2478 C   0  0  0  0  0  0  0  0  0  0  0  0
   13.2199  -26.9900  -12.3119 C   0  0  0  0  0  0  0  0  0  0  0  0
   12.6342  -27.5465  -10.0327 C   0  0  0  0  0  0  0  0  0  0  0  0
   13.6343  -27.4258  -11.1193 C   0  0  0  0  0  0  0  0  0  0  0  0
   15.0501  -27.7581  -10.9544 C   0  0  0  0  0  0  0  0  0  0  0  0
   13.0923  -24.1265  -13.8975 C   0  0  0  0  0  0  0  0  0  0  0  0
   11.0910  -24.0753  -15.4069 C   0  0  0  0  0  0  0  0  0  0  0  0
    6.9354  -24.7798  -10.9814 C   0  0  0  0  0  0  0  0  0  0  0  0
    7.9109  -27.0392   -8.5599 C   0  0  0  0  0  0  0  0  0  0  0  0
   12.4364  -26.8751  -15.0283 C   0  0  0  0  0  0  0  0  0  0  0  0
   11.6560  -24.6246  -14.0934 C   0  0  0  0  0  0  0  0  0  0  0  0
   11.5733  -26.1659  -13.9810 C   0  0  2  0  0  0  0  0  0  0  0  0
   11.9254  -26.6329  -12.6424 N   0  0  0  0  0  0  0  0  0  0  0  0
   12.9491  -27.9390   -8.9163 O   0  0  0  0  0  0  0  0  0  0  0  0
   15.9606  -27.2269  -11.5656 O   0  0  0  0  0  0  0  0  0  0  0  0
   15.1829  -28.7332  -10.0305 O   0  0  0  0  0  0  0  0  0  0  0  0
   12.3177  -28.2842  -14.8586 O   0  0  0  0  0  0  0  0  0  0  0  0
    7.3078  -26.1389  -11.1977 O   0  0  0  0  0  0  0  0  0  0  0  0
    5.2062  -26.2297   -8.6915 F   0  0  0  0  0  0  0  0  0  0  0  0
    2.8002  -27.8310   -9.3097 Cl  0  0  0  0  0  0  0  0  0  0  0  0
    6.2249  -31.2551   -9.6563 H   0  0  0  0  0  0  0  0  0  0  0  0
    8.0721  -29.7046   -9.1137 H   0  0  0  0  0  0  0  0  0  0  0  0
    3.8977  -30.4389   -9.7453 H   0  0  0  0  0  0  0  0  0  0  0  0
   10.5193  -27.6189   -8.3604 H   0  0  0  0  0  0  0  0  0  0  0  0
    9.2502  -26.0273  -12.8859 H   0  0  0  0  0  0  0  0  0  0  0  0
   13.9128  -26.8839  -13.1410 H   0  0  0  0  0  0  0  0  0  0  0  0
   13.7460  -24.5163  -14.6854 H   0  0  0  0  0  0  0  0  0  0  0  0
   13.5046  -24.4457  -12.9346 H   0  0  0  0  0  0  0  0  0  0  0  0
   13.1349  -23.0332  -13.9422 H   0  0  0  0  0  0  0  0  0  0  0  0
   11.6432  -24.4586  -16.2700 H   0  0  0  0  0  0  0  0  0  0  0  0
   10.0452  -24.3779  -15.5306 H   0  0  0  0  0  0  0  0  0  0  0  0
   11.1255  -22.9813  -15.4363 H   0  0  0  0  0  0  0  0  0  0  0  0
    5.8857  -24.6414  -11.2518 H   0  0  0  0  0  0  0  0  0  0  0  0
    7.5681  -24.1268  -11.5878 H   0  0  0  0  0  0  0  0  0  0  0  0
    7.0721  -24.5377   -9.9248 H   0  0  0  0  0  0  0  0  0  0  0  0
    7.4890  -26.0468   -8.3247 H   0  0  0  0  0  0  0  0  0  0  0  0
    8.3781  -27.3570   -7.6118 H   0  0  0  0  0  0  0  0  0  0  0  0
   13.4944  -26.6099  -14.9329 H   0  0  0  0  0  0  0  0  0  0  0  0
   12.0965  -26.6323  -16.0401 H   0  0  0  0  0  0  0  0  0  0  0  0
   11.0572  -24.2004  -13.2761 H   0  0  0  0  0  0  0  0  0  0  0  0
   10.5309  -26.4765  -14.1273 H   0  0  0  0  0  0  0  0  0  0  0  0
   16.1212  -28.9837   -9.8924 H   0  0  0  0  0  0  0  0  0  0  0  0
   12.8766  -28.6932  -15.5377 H   0  0  0  0  0  0  0  0  0  0  0  0
  1  2  2  0  0  0  0
  1  3  1  0  0  0  0
  2  7  1  0  0  0  0
  3 12  2  0  0  0  0
  4  6  2  0  0  0  0
  4  8  1  0  0  0  0
  5  9  2  0  0  0  0
  5 10  1  0  0  0  0
  6  9  1  0  0  0  0
  6 14  1  0  0  0  0
  7 11  2  0  0  0  0
  7 20  1  0  0  0  0
  8 10  2  0  0  0  0
  8 20  1  0  0  0  0
  9 24  1  0  0  0  0
 10 29  1  0  0  0  0
 11 12  1  0  0  0  0
 11 30  1  0  0  0  0
 12 31  1  0  0  0  0
 13 15  2  0  0  0  0
 13 24  1  0  0  0  0
 14 15  1  0  0  0  0
 14 25  2  0  0  0  0
 15 16  1  0  0  0  0
 16 26  2  0  0  0  0
 16 27  1  0  0  0  0
 17 22  1  0  0  0  0
 18 22  1  0  0  0  0
 19 29  1  0  0  0  0
 21 23  1  0  0  0  0
 21 28  1  0  0  0  0
 22 23  1  0  0  0  0
 23 24  1  0  0  0  0
  1 32  1  0  0  0  0
  2 33  1  0  0  0  0
  3 34  1  0  0  0  0
  4 35  1  0  0  0  0
  5 36  1  0  0  0  0
 13 37  1  0  0  0  0
 17 38  1  0  0  0  0
 17 39  1  0  0  0  0
 17 40  1  0  0  0  0
 18 41  1  0  0  0  0
 18 42  1  0  0  0  0
 18 43  1  0  0  0  0
 19 44  1  0  0  0  0
 19 45  1  0  0  0  0
 19 46  1  0  0  0  0
 20 47  1  0  0  0  0
 20 48  1  0  0  0  0
 21 49  1  0  0  0  0
 21 50  1  0  0  0  0
 22 51  1  0  0  0  0
 23 52  1  0  0  0  0
 27 53  1  0  0  0  0
 28 54  1  0  0  0  0
M  END
> <Hybrid2>
-4.595103740692139

> <Hybrid2>
-4.595104

$$$$
CHEMBL204656
  -OEChem-02152218473D

 54 56  0     1  0  0  0  0  0999 V2000
    4.4211  -27.5547   -8.9405 C   0  0  0  0  0  0  0  0  0  0  0  0
    5.5595  -26.8048   -8.6449 C   0  0  0  0  0  0  0  0  0  0  0  0
    4.5397  -28.9090   -9.2530 C   0  0  0  0  0  0  0  0  0  0  0  0
   10.3344  -27.0281   -9.2298 C   0  0  0  0  0  0  0  0  0  0  0  0
    9.6536  -25.9781  -11.7220 C   0  0  0  0  0  0  0  0  0  0  0  0
   11.2804  -26.9874  -10.2630 C   0  0  0  0  0  0  0  0  0  0  0  0
    6.8165  -27.4092   -8.6618 C   0  0  0  0  0  0  0  0  0  0  0  0
    9.0492  -26.5422   -9.4481 C   0  0  0  0  0  0  0  0  0  0  0  0
   10.9616  -26.4602  -11.5364 C   0  0  0  0  0  0  0  0  0  0  0  0
    8.7094  -26.0187  -10.6909 C   0  0  0  0  0  0  0  0  0  0  0  0
    6.9351  -28.7635   -8.9742 C   0  0  0  0  0  0  0  0  0  0  0  0
    5.7967  -29.5133   -9.2698 C   0  0  0  0  0  0  0  0  0  0  0  0
   13.2099  -26.9356  -12.2797 C   0  0  0  0  0  0  0  0  0  0  0  0
   12.6465  -27.5139  -10.0003 C   0  0  0  0  0  0  0  0  0  0  0  0
   13.6171  -27.4541  -11.1181 C   0  0  0  0  0  0  0  0  0  0  0  0
   14.9967  -27.9321  -11.0162 C   0  0  0  0  0  0  0  0  0  0  0  0
   13.3207  -24.0175  -13.7637 C   0  0  0  0  0  0  0  0  0  0  0  0
   11.2860  -23.7110  -15.1964 C   0  0  0  0  0  0  0  0  0  0  0  0
    7.2289  -24.1580  -10.6479 C   0  0  0  0  0  0  0  0  0  0  0  0
    8.0500  -26.5909   -8.3399 C   0  0  0  0  0  0  0  0  0  0  0  0
   12.3528  -26.6433  -14.9603 C   0  0  0  0  0  0  0  0  0  0  0  0
   11.8356  -24.3618  -13.9234 C   0  0  0  0  0  0  0  0  0  0  0  0
   11.6010  -25.8902  -13.8592 C   0  0  2  0  0  0  0  0  0  0  0  0
   11.9480  -26.4389  -12.5506 N   0  0  0  0  0  0  0  0  0  0  0  0
   12.9567  -27.9766   -8.9097 O   0  0  0  0  0  0  0  0  0  0  0  0
   15.9356  -27.4727  -11.6422 O   0  0  0  0  0  0  0  0  0  0  0  0
   15.0605  -28.9489  -10.1306 O   0  0  0  0  0  0  0  0  0  0  0  0
   12.0976  -28.0388  -14.8332 O   0  0  0  0  0  0  0  0  0  0  0  0
    7.4544  -25.5387  -10.9226 O   0  0  0  0  0  0  0  0  0  0  0  0
    8.1468  -29.3397   -8.9905 F   0  0  0  0  0  0  0  0  0  0  0  0
    5.9365  -31.1853   -9.6566 Cl  0  0  0  0  0  0  0  0  0  0  0  0
    3.4424  -27.0839   -8.9274 H   0  0  0  0  0  0  0  0  0  0  0  0
    5.4565  -25.7503   -8.4027 H   0  0  0  0  0  0  0  0  0  0  0  0
    3.6435  -29.4803   -9.4812 H   0  0  0  0  0  0  0  0  0  0  0  0
   10.5915  -27.4356   -8.2551 H   0  0  0  0  0  0  0  0  0  0  0  0
    9.3413  -25.5601  -12.6760 H   0  0  0  0  0  0  0  0  0  0  0  0
   13.8822  -26.8690  -13.1295 H   0  0  0  0  0  0  0  0  0  0  0  0
   13.9051  -24.4415  -14.5875 H   0  0  0  0  0  0  0  0  0  0  0  0
   13.7300  -24.4113  -12.8277 H   0  0  0  0  0  0  0  0  0  0  0  0
   13.4722  -22.9330  -13.7737 H   0  0  0  0  0  0  0  0  0  0  0  0
   11.7678  -24.1157  -16.0914 H   0  0  0  0  0  0  0  0  0  0  0  0
   10.2115  -23.9027  -15.2918 H   0  0  0  0  0  0  0  0  0  0  0  0
   11.4301  -22.6256  -15.1908 H   0  0  0  0  0  0  0  0  0  0  0  0
    6.1903  -23.9055  -10.8750 H   0  0  0  0  0  0  0  0  0  0  0  0
    7.9041  -23.5498  -11.2550 H   0  0  0  0  0  0  0  0  0  0  0  0
    7.4242  -23.9697   -9.5895 H   0  0  0  0  0  0  0  0  0  0  0  0
    7.7387  -25.5706   -8.0566 H   0  0  0  0  0  0  0  0  0  0  0  0
    8.5137  -26.9884   -7.4205 H   0  0  0  0  0  0  0  0  0  0  0  0
   13.4348  -26.4890  -14.8949 H   0  0  0  0  0  0  0  0  0  0  0  0
   12.0060  -26.3308  -15.9504 H   0  0  0  0  0  0  0  0  0  0  0  0
   11.3101  -23.9101  -13.0712 H   0  0  0  0  0  0  0  0  0  0  0  0
   10.5282  -26.0894  -13.9776 H   0  0  0  0  0  0  0  0  0  0  0  0
   15.9727  -29.2969  -10.0352 H   0  0  0  0  0  0  0  0  0  0  0  0
   12.5896  -28.4765  -15.5454 H   0  0  0  0  0  0  0  0  0  0  0  0
  1  2  2  0  0  0  0
  1  3  1  0  0  0  0
  2  7  1  0  0  0  0
  3 12  2  0  0  0  0
  4  6  2  0  0  0  0
  4  8  1  0  0  0  0
  5  9  2  0  0  0  0
  5 10  1  0  0  0  0
  6  9  1  0  0  0  0
  6 14  1  0  0  0  0
  7 11  2  0  0  0  0
  7 20  1  0  0  0  0
  8 10  2  0  0  0  0
  8 20  1  0  0  0  0
  9 24  1  0  0  0  0
 10 29  1  0  0  0  0
 11 12  1  0  0  0  0
 11 30  1  0  0  0  0
 12 31  1  0  0  0  0
 13 15  2  0  0  0  0
 13 24  1  0  0  0  0
 14 15  1  0  0  0  0
 14 25  2  0  0  0  0
 15 16  1  0  0  0  0
 16 26  2  0  0  0  0
 16 27  1  0  0  0  0
 17 22  1  0  0  0  0
 18 22  1  0  0  0  0
 19 29  1  0  0  0  0
 21 23  1  0  0  0  0
 21 28  1  0  0  0  0
 22 23  1  0  0  0  0
 23 24  1  0  0  0  0
  1 32  1  0  0  0  0
  2 33  1  0  0  0  0
  3 34  1  0  0  0  0
  4 35  1  0  0  0  0
  5 36  1  0  0  0  0
 13 37  1  0  0  0  0
 17 38  1  0  0  0  0
 17 39  1  0  0  0  0
 17 40  1  0  0  0  0
 18 41  1  0  0  0  0
 18 42  1  0  0  0  0
 18 43  1  0  0  0  0
 19 44  1  0  0  0  0
 19 45  1  0  0  0  0
 19 46  1  0  0  0  0
 20 47  1  0  0  0  0
 20 48  1  0  0  0  0
 21 49  1  0  0  0  0
 21 50  1  0  0  0  0
 22 51  1  0  0  0  0
 23 52  1  0  0  0  0
 27 53  1  0  0  0  0
 28 54  1  0  0  0  0
M  END
> <Hybrid2>
-4.595103740692139

> <Hybrid2>
-4.579518

$$$$
CHEMBL212213
  -OEChem-02152218473D

 40 43  0     0  0  0  0  0  0999 V2000
   13.4705  -26.2670   -9.6966 C   0  0  0  0  0  0  0  0  0  0  0  0
   12.9361  -26.9145  -11.9621 C   0  0  0  0  0  0  0  0  0  0  0  0
   14.6174  -27.0597   -9.7406 C   0  0  0  0  0  0  0  0  0  0  0  0
   14.0830  -27.7072  -12.0061 C   0  0  0  0  0  0  0  0  0  0  0  0
    6.2044  -30.2189   -8.8556 C   0  0  0  0  0  0  0  0  0  0  0  0
    4.4977  -29.0030   -7.7522 C   0  0  0  0  0  0  0  0  0  0  0  0
    6.9157  -29.0251   -9.0276 C   0  0  0  0  0  0  0  0  0  0  0  0
    8.2508  -26.6443   -9.3271 C   0  0  0  0  0  0  0  0  0  0  0  0
    8.8220  -27.8095   -9.8242 C   0  0  0  0  0  0  0  0  0  0  0  0
   12.6298  -26.1945  -10.8073 C   0  0  0  0  0  0  0  0  0  0  0  0
    6.3381  -27.8271   -8.5212 C   0  0  0  0  0  0  0  0  0  0  0  0
    8.1633  -29.0126   -9.6814 C   0  0  0  0  0  0  0  0  0  0  0  0
    7.0280  -26.6287   -8.6814 C   0  0  0  0  0  0  0  0  0  0  0  0
   14.9236  -27.7798  -10.8953 C   0  0  0  0  0  0  0  0  0  0  0  0
    4.9765  -30.2144   -8.2091 C   0  0  0  0  0  0  0  0  0  0  0  0
    9.1564  -25.5262   -9.6145 C   0  0  0  0  0  0  0  0  0  0  0  0
   10.1349  -27.5185  -10.4651 C   0  0  0  0  0  0  0  0  0  0  0  0
    9.5864  -30.8782   -9.2937 C   0  0  0  0  0  0  0  0  0  0  0  0
   11.3956  -25.3408  -10.7610 C   0  0  0  0  0  0  0  0  0  0  0  0
    5.1478  -27.8254   -7.8949 N   0  0  0  0  0  0  0  0  0  0  0  0
   10.2461  -26.0766  -10.2803 N   0  0  0  0  0  0  0  0  0  0  0  0
    8.9424  -24.3678   -9.3072 O   0  0  0  0  0  0  0  0  0  0  0  0
    6.5079  -25.4623   -8.2103 O   0  0  0  0  0  0  0  0  0  0  0  0
    8.7309  -30.1483  -10.1719 O   0  0  0  0  0  0  0  0  0  0  0  0
   16.0264  -28.5389  -10.9386 F   0  0  0  0  0  0  0  0  0  0  0  0
    4.2821  -31.3442   -8.0356 F   0  0  0  0  0  0  0  0  0  0  0  0
   13.2398  -25.7102   -8.7922 H   0  0  0  0  0  0  0  0  0  0  0  0
   12.2871  -26.8639  -12.8324 H   0  0  0  0  0  0  0  0  0  0  0  0
   15.2722  -27.1158   -8.8763 H   0  0  0  0  0  0  0  0  0  0  0  0
   14.3215  -28.2682  -12.9047 H   0  0  0  0  0  0  0  0  0  0  0  0
    6.5930  -31.1666   -9.2201 H   0  0  0  0  0  0  0  0  0  0  0  0
    3.5435  -28.9414   -7.2392 H   0  0  0  0  0  0  0  0  0  0  0  0
   10.9637  -28.0123   -9.9504 H   0  0  0  0  0  0  0  0  0  0  0  0
   10.1304  -27.7445  -11.5350 H   0  0  0  0  0  0  0  0  0  0  0  0
    9.9721  -31.7608   -9.8098 H   0  0  0  0  0  0  0  0  0  0  0  0
    9.0265  -31.1785   -8.4044 H   0  0  0  0  0  0  0  0  0  0  0  0
   10.4210  -30.2383   -8.9976 H   0  0  0  0  0  0  0  0  0  0  0  0
   11.5459  -24.4804  -10.0998 H   0  0  0  0  0  0  0  0  0  0  0  0
   11.1511  -24.9492  -11.7540 H   0  0  0  0  0  0  0  0  0  0  0  0
    7.1089  -24.7247   -8.4015 H   0  0  0  0  0  0  0  0  0  0  0  0
  1  3  2  0  0  0  0
  1 10  1  0  0  0  0
  2  4  1  0  0  0  0
  2 10  2  0  0  0  0
  3 14  1  0  0  0  0
  4 14  2  0  0  0  0
  5  7  1  0  0  0  0
  5 15  2  0  0  0  0
  6 15  1  0  0  0  0
  6 20  2  0  0  0  0
  7 11  1  0  0  0  0
  7 12  2  0  0  0  0
  8  9  2  0  0  0  0
  8 13  1  0  0  0  0
  8 16  1  0  0  0  0
  9 12  1  0  0  0  0
  9 17  1  0  0  0  0
 10 19  1  0  0  0  0
 11 13  2  0  0  0  0
 11 20  1  0  0  0  0
 12 24  1  0  0  0  0
 13 23  1  0  0  0  0
 14 25  1  0  0  0  0
 15 26  1  0  0  0  0
 16 21  1  0  0  0  0
 16 22  2  0  0  0  0
 17 21  1  0  0  0  0
 18 24  1  0  0  0  0
 19 21  1  0  0  0  0
  1 27  1  0  0  0  0
  2 28  1  0  0  0  0
  3 29  1  0  0  0  0
  4 30  1  0  0  0  0
  5 31  1  0  0  0  0
  6 32  1  0  0  0  0
 17 33  1  0  0  0  0
 17 34  1  0  0  0  0
 18 35  1  0  0  0  0
 18 36  1  0  0  0  0
 18 37  1  0  0  0  0
 19 38  1  0  0  0  0
 19 39  1  0  0  0  0
 23 40  1  0  0  0  0
M  END
> <Hybrid2>
-5.370738506317139

> <Hybrid2>
-5.370739

$$$$
CHEMBL212213
  -OEChem-02152218473D

 40 43  0     0  0  0  0  0  0999 V2000
   13.1161  -26.0348   -9.8676 C   0  0  0  0  0  0  0  0  0  0  0  0
   12.5817  -26.6823  -12.1331 C   0  0  0  0  0  0  0  0  0  0  0  0
   14.2630  -26.8275   -9.9116 C   0  0  0  0  0  0  0  0  0  0  0  0
   13.7286  -27.4750  -12.1771 C   0  0  0  0  0  0  0  0  0  0  0  0
    5.8500  -29.9867   -9.0266 C   0  0  0  0  0  0  0  0  0  0  0  0
    4.1433  -28.7708   -7.9232 C   0  0  0  0  0  0  0  0  0  0  0  0
    6.5613  -28.7929   -9.1986 C   0  0  0  0  0  0  0  0  0  0  0  0
    7.8964  -26.4121   -9.4981 C   0  0  0  0  0  0  0  0  0  0  0  0
    8.4676  -27.5773   -9.9953 C   0  0  0  0  0  0  0  0  0  0  0  0
   12.2755  -25.9623  -10.9784 C   0  0  0  0  0  0  0  0  0  0  0  0
    5.9837  -27.5949   -8.6922 C   0  0  0  0  0  0  0  0  0  0  0  0
    7.8089  -28.7804   -9.8524 C   0  0  0  0  0  0  0  0  0  0  0  0
    6.6736  -26.3965   -8.8524 C   0  0  0  0  0  0  0  0  0  0  0  0
   14.5693  -27.5476  -11.0663 C   0  0  0  0  0  0  0  0  0  0  0  0
    4.6222  -29.9822   -8.3802 C   0  0  0  0  0  0  0  0  0  0  0  0
    8.8020  -25.2940   -9.7855 C   0  0  0  0  0  0  0  0  0  0  0  0
    9.7806  -27.2863  -10.6361 C   0  0  0  0  0  0  0  0  0  0  0  0
    9.2320  -30.6460   -9.4647 C   0  0  0  0  0  0  0  0  0  0  0  0
   11.0412  -25.1086  -10.9320 C   0  0  0  0  0  0  0  0  0  0  0  0
    4.7935  -27.5932   -8.0659 N   0  0  0  0  0  0  0  0  0  0  0  0
    9.8917  -25.8444  -10.4513 N   0  0  0  0  0  0  0  0  0  0  0  0
    8.5880  -24.1356   -9.4782 O   0  0  0  0  0  0  0  0  0  0  0  0
    6.1535  -25.2301   -8.3813 O   0  0  0  0  0  0  0  0  0  0  0  0
    8.3765  -29.9161  -10.3429 O   0  0  0  0  0  0  0  0  0  0  0  0
   15.6720  -28.3067  -11.1096 F   0  0  0  0  0  0  0  0  0  0  0  0
    3.9278  -31.1120   -8.2066 F   0  0  0  0  0  0  0  0  0  0  0  0
   12.8854  -25.4780   -8.9632 H   0  0  0  0  0  0  0  0  0  0  0  0
   11.9328  -26.6317  -13.0035 H   0  0  0  0  0  0  0  0  0  0  0  0
   14.9179  -26.8836   -9.0473 H   0  0  0  0  0  0  0  0  0  0  0  0
   13.9672  -28.0360  -13.0757 H   0  0  0  0  0  0  0  0  0  0  0  0
    6.2386  -30.9344   -9.3911 H   0  0  0  0  0  0  0  0  0  0  0  0
    3.1891  -28.7092   -7.4102 H   0  0  0  0  0  0  0  0  0  0  0  0
   10.6093  -27.7801  -10.1215 H   0  0  0  0  0  0  0  0  0  0  0  0
    9.7761  -27.5123  -11.7060 H   0  0  0  0  0  0  0  0  0  0  0  0
    9.6177  -31.5286   -9.9808 H   0  0  0  0  0  0  0  0  0  0  0  0
    8.6722  -30.9463   -8.5754 H   0  0  0  0  0  0  0  0  0  0  0  0
   10.0667  -30.0061   -9.1686 H   0  0  0  0  0  0  0  0  0  0  0  0
   11.1915  -24.2482  -10.2708 H   0  0  0  0  0  0  0  0  0  0  0  0
   10.7967  -24.7170  -11.9250 H   0  0  0  0  0  0  0  0  0  0  0  0
    6.7545  -24.4925   -8.5725 H   0  0  0  0  0  0  0  0  0  0  0  0
  1  3  2  0  0  0  0
  1 10  1  0  0  0  0
  2  4  1  0  0  0  0
  2 10  2  0  0  0  0
  3 14  1  0  0  0  0
  4 14  2  0  0  0  0
  5  7  1  0  0  0  0
  5 15  2  0  0  0  0
  6 15  1  0  0  0  0
  6 20  2  0  0  0  0
  7 11  1  0  0  0  0
  7 12  2  0  0  0  0
  8  9  2  0  0  0  0
  8 13  1  0  0  0  0
  8 16  1  0  0  0  0
  9 12  1  0  0  0  0
  9 17  1  0  0  0  0
 10 19  1  0  0  0  0
 11 13  2  0  0  0  0
 11 20  1  0  0  0  0
 12 24  1  0  0  0  0
 13 23  1  0  0  0  0
 14 25  1  0  0  0  0
 15 26  1  0  0  0  0
 16 21  1  0  0  0  0
 16 22  2  0  0  0  0
 17 21  1  0  0  0  0
 18 24  1  0  0  0  0
 19 21  1  0  0  0  0
  1 27  1  0  0  0  0
  2 28  1  0  0  0  0
  3 29  1  0  0  0  0
  4 30  1  0  0  0  0
  5 31  1  0  0  0  0
  6 32  1  0  0  0  0
 17 33  1  0  0  0  0
 17 34  1  0  0  0  0
 18 35  1  0  0  0  0
 18 36  1  0  0  0  0
 18 37  1  0  0  0  0
 19 38  1  0  0  0  0
 19 39  1  0  0  0  0
 23 40  1  0  0  0  0
M  END
> <Hybrid2>
-5.370738506317139

> <Hybrid2>
-5.353655

$$$$
CHEMBL206604
  -OEChem-02152218473D

 50 52  0     1  0  0  0  0  0999 V2000
    4.0388  -27.5277   -9.2397 C   0  0  0  0  0  0  0  0  0  0  0  0
    5.1539  -26.7177   -9.0254 C   0  0  0  0  0  0  0  0  0  0  0  0
    8.3421  -26.2587  -11.0517 C   0  0  0  0  0  0  0  0  0  0  0  0
    9.3154  -26.3578  -12.0513 C   0  0  0  0  0  0  0  0  0  0  0  0
    4.1884  -28.9118   -9.3258 C   0  0  0  0  0  0  0  0  0  0  0  0
    9.9720  -26.8734   -9.3904 C   0  0  0  0  0  0  0  0  0  0  0  0
   10.9472  -26.9728  -10.3920 C   0  0  0  0  0  0  0  0  0  0  0  0
    8.6698  -26.5158   -9.7249 C   0  0  0  0  0  0  0  0  0  0  0  0
    6.4187  -27.2918   -8.8971 C   0  0  0  0  0  0  0  0  0  0  0  0
   10.6413  -26.7167  -11.7492 C   0  0  0  0  0  0  0  0  0  0  0  0
    6.5683  -28.6759   -8.9832 C   0  0  0  0  0  0  0  0  0  0  0  0
    5.4531  -29.4860   -9.1975 C   0  0  0  0  0  0  0  0  0  0  0  0
   12.9350  -27.1888  -12.3400 C   0  0  0  0  0  0  0  0  0  0  0  0
   12.3309  -27.3571  -10.0046 C   0  0  0  0  0  0  0  0  0  0  0  0
   13.3324  -27.4522  -11.0923 C   0  0  0  0  0  0  0  0  0  0  0  0
   14.7322  -27.8184  -10.8717 C   0  0  0  0  0  0  0  0  0  0  0  0
   12.9316  -24.6036  -14.3531 C   0  0  0  0  0  0  0  0  0  0  0  0
   10.9297  -24.6981  -15.8596 C   0  0  0  0  0  0  0  0  0  0  0  0
    7.6274  -26.4077   -8.6641 C   0  0  0  0  0  0  0  0  0  0  0  0
   12.1491  -27.4624  -15.0447 C   0  0  0  0  0  0  0  0  0  0  0  0
   11.4737  -25.0610  -14.4745 C   0  0  0  0  0  0  0  0  0  0  0  0
   11.3221  -26.5607  -14.1239 C   0  0  2  0  0  0  0  0  0  0  0  0
   11.6572  -26.8290  -12.7276 N   0  0  0  0  0  0  0  0  0  0  0  0
   12.6302  -27.5861   -8.8394 O   0  0  0  0  0  0  0  0  0  0  0  0
   15.6641  -27.4302  -11.5540 O   0  0  0  0  0  0  0  0  0  0  0  0
   14.8232  -28.6431   -9.8070 O   0  0  0  0  0  0  0  0  0  0  0  0
   11.9676  -28.8211  -14.6582 O   0  0  0  0  0  0  0  0  0  0  0  0
    7.7873  -29.2230   -8.8606 F   0  0  0  0  0  0  0  0  0  0  0  0
    5.6313  -31.1951   -9.3050 Cl  0  0  0  0  0  0  0  0  0  0  0  0
    3.0540  -27.0805   -9.3396 H   0  0  0  0  0  0  0  0  0  0  0  0
    5.0269  -25.6402   -8.9598 H   0  0  0  0  0  0  0  0  0  0  0  0
    7.3273  -25.9797  -11.3238 H   0  0  0  0  0  0  0  0  0  0  0  0
    9.0043  -26.1476  -13.0712 H   0  0  0  0  0  0  0  0  0  0  0  0
    3.3100  -29.5301   -9.4932 H   0  0  0  0  0  0  0  0  0  0  0  0
   10.2185  -27.0724   -8.3503 H   0  0  0  0  0  0  0  0  0  0  0  0
   13.6296  -27.2442  -13.1726 H   0  0  0  0  0  0  0  0  0  0  0  0
   13.5645  -25.1402  -15.0683 H   0  0  0  0  0  0  0  0  0  0  0  0
   13.3322  -24.7871  -13.3508 H   0  0  0  0  0  0  0  0  0  0  0  0
   13.0231  -23.5336  -14.5673 H   0  0  0  0  0  0  0  0  0  0  0  0
   11.4613  -25.2355  -16.6505 H   0  0  0  0  0  0  0  0  0  0  0  0
    9.8710  -24.9690  -15.9387 H   0  0  0  0  0  0  0  0  0  0  0  0
   11.0132  -23.6247  -16.0589 H   0  0  0  0  0  0  0  0  0  0  0  0
    8.0565  -26.6439   -7.6743 H   0  0  0  0  0  0  0  0  0  0  0  0
    7.2889  -25.3617   -8.5587 H   0  0  0  0  0  0  0  0  0  0  0  0
   13.2182  -27.2334  -14.9878 H   0  0  0  0  0  0  0  0  0  0  0  0
   11.8171  -27.3651  -16.0833 H   0  0  0  0  0  0  0  0  0  0  0  0
   10.8972  -24.4883  -13.7355 H   0  0  0  0  0  0  0  0  0  0  0  0
   10.2663  -26.8432  -14.2240 H   0  0  0  0  0  0  0  0  0  0  0  0
   15.7496  -28.9113   -9.6275 H   0  0  0  0  0  0  0  0  0  0  0  0
   12.5054  -29.3556  -15.2632 H   0  0  0  0  0  0  0  0  0  0  0  0
  1  2  2  0  0  0  0
  1  5  1  0  0  0  0
  2  9  1  0  0  0  0
  3  4  2  0  0  0  0
  3  8  1  0  0  0  0
  4 10  1  0  0  0  0
  5 12  2  0  0  0  0
  6  7  1  0  0  0  0
  6  8  2  0  0  0  0
  7 10  2  0  0  0  0
  7 14  1  0  0  0  0
  8 19  1  0  0  0  0
  9 11  2  0  0  0  0
  9 19  1  0  0  0  0
 10 23  1  0  0  0  0
 11 12  1  0  0  0  0
 11 28  1  0  0  0  0
 12 29  1  0  0  0  0
 13 15  2  0  0  0  0
 13 23  1  0  0  0  0
 14 15  1  0  0  0  0
 14 24  2  0  0  0  0
 15 16  1  0  0  0  0
 16 25  2  0  0  0  0
 16 26  1  0  0  0  0
 17 21  1  0  0  0  0
 18 21  1  0  0  0  0
 20 22  1  0  0  0  0
 20 27  1  0  0  0  0
 21 22  1  0  0  0  0
 22 23  1  0  0  0  0
  1 30  1  0  0  0  0
  2 31  1  0  0  0  0
  3 32  1  0  0  0  0
  4 33  1  0  0  0  0
  5 34  1  0  0  0  0
  6 35  1  0  0  0  0
 13 36  1  0  0  0  0
 17 37  1  0  0  0  0
 17 38  1  0  0  0  0
 17 39  1  0  0  0  0
 18 40  1  0  0  0  0
 18 41  1  0  0  0  0
 18 42  1  0  0  0  0
 19 43  1  0  0  0  0
 19 44  1  0  0  0  0
 20 45  1  0  0  0  0
 20 46  1  0  0  0  0
 21 47  1  0  0  0  0
 22 48  1  0  0  0  0
 26 49  1  0  0  0  0
 27 50  1  0  0  0  0
M  END
> <Hybrid2>
-4.762203216552734

> <Hybrid2>
-4.762203

$$$$
CHEMBL206604
  -OEChem-02152218473D

 50 52  0     1  0  0  0  0  0999 V2000
   12.0548  -26.6317  -13.6876 C   0  0  0  0  0  0  0  0  0  0  0  0
   11.2713  -26.1056  -12.6605 C   0  0  0  0  0  0  0  0  0  0  0  0
    9.6355  -27.5715   -9.7601 C   0  0  0  0  0  0  0  0  0  0  0  0
    8.4328  -28.2576   -9.5622 C   0  0  0  0  0  0  0  0  0  0  0  0
   13.3369  -27.1077  -13.4130 C   0  0  0  0  0  0  0  0  0  0  0  0
    8.4203  -25.5245  -10.1168 C   0  0  0  0  0  0  0  0  0  0  0  0
    7.2152  -26.2120   -9.9185 C   0  0  0  0  0  0  0  0  0  0  0  0
    9.6290  -26.2086  -10.0366 C   0  0  0  0  0  0  0  0  0  0  0  0
   11.7699  -26.0555  -11.3587 C   0  0  0  0  0  0  0  0  0  0  0  0
    7.1930  -27.5978   -9.6358 C   0  0  0  0  0  0  0  0  0  0  0  0
   13.0520  -26.5315  -11.0841 C   0  0  0  0  0  0  0  0  0  0  0  0
   13.8355  -27.0576  -12.1112 C   0  0  0  0  0  0  0  0  0  0  0  0
    4.7811  -27.5235   -9.5346 C   0  0  0  0  0  0  0  0  0  0  0  0
    5.9385  -25.4544  -10.0103 C   0  0  0  0  0  0  0  0  0  0  0  0
    4.6865  -26.2170   -9.7955 C   0  0  0  0  0  0  0  0  0  0  0  0
    3.3538  -25.6148   -9.8535 C   0  0  0  0  0  0  0  0  0  0  0  0
    4.8503  -29.4314   -6.8716 C   0  0  0  0  0  0  0  0  0  0  0  0
    6.2867  -31.4414   -7.2993 C   0  0  0  0  0  0  0  0  0  0  0  0
   10.9149  -25.4832  -10.2459 C   0  0  0  0  0  0  0  0  0  0  0  0
    4.7155  -30.3426   -9.7725 C   0  0  0  0  0  0  0  0  0  0  0  0
    6.0690  -29.9627   -7.6343 C   0  0  0  0  0  0  0  0  0  0  0  0
    5.9504  -29.6832   -9.1519 C   0  0  2  0  0  0  0  0  0  0  0  0
    5.9531  -28.2517   -9.4428 N   0  0  0  0  0  0  0  0  0  0  0  0
    5.9212  -24.2543  -10.2536 O   0  0  0  0  0  0  0  0  0  0  0  0
    2.3912  -26.0034   -9.2155 O   0  0  0  0  0  0  0  0  0  0  0  0
    3.3624  -24.5754  -10.7148 O   0  0  0  0  0  0  0  0  0  0  0  0
    4.6679  -30.0358  -11.1625 O   0  0  0  0  0  0  0  0  0  0  0  0
   13.5274  -26.4796   -9.8304 F   0  0  0  0  0  0  0  0  0  0  0  0
   15.4189  -27.6464  -11.7787 Cl  0  0  0  0  0  0  0  0  0  0  0  0
   11.6665  -26.6706  -14.7012 H   0  0  0  0  0  0  0  0  0  0  0  0
   10.2736  -25.7373  -12.8847 H   0  0  0  0  0  0  0  0  0  0  0  0
   10.5745  -28.1156   -9.6965 H   0  0  0  0  0  0  0  0  0  0  0  0
    8.4961  -29.3218   -9.3508 H   0  0  0  0  0  0  0  0  0  0  0  0
   13.9357  -27.5148  -14.2238 H   0  0  0  0  0  0  0  0  0  0  0  0
    8.4254  -24.4590  -10.3334 H   0  0  0  0  0  0  0  0  0  0  0  0
    3.8940  -28.1275   -9.3694 H   0  0  0  0  0  0  0  0  0  0  0  0
    3.9387  -29.9445   -7.1967 H   0  0  0  0  0  0  0  0  0  0  0  0
    4.7050  -28.3586   -7.0357 H   0  0  0  0  0  0  0  0  0  0  0  0
    4.9601  -29.6009   -5.7954 H   0  0  0  0  0  0  0  0  0  0  0  0
    5.4488  -32.0557   -7.6422 H   0  0  0  0  0  0  0  0  0  0  0  0
    7.1887  -31.8179   -7.7943 H   0  0  0  0  0  0  0  0  0  0  0  0
    6.4089  -31.5988   -6.2227 H   0  0  0  0  0  0  0  0  0  0  0  0
   10.7272  -24.4149  -10.4538 H   0  0  0  0  0  0  0  0  0  0  0  0
   11.5069  -25.4674   -9.3137 H   0  0  0  0  0  0  0  0  0  0  0  0
    3.7878  -29.9849   -9.3141 H   0  0  0  0  0  0  0  0  0  0  0  0
    4.7665  -31.4317   -9.6740 H   0  0  0  0  0  0  0  0  0  0  0  0
    6.9430  -29.4104   -7.2633 H   0  0  0  0  0  0  0  0  0  0  0  0
    6.8412  -30.0792   -9.6559 H   0  0  0  0  0  0  0  0  0  0  0  0
    2.4834  -24.1450  -10.7807 H   0  0  0  0  0  0  0  0  0  0  0  0
    3.8754  -30.4701  -11.5152 H   0  0  0  0  0  0  0  0  0  0  0  0
  1  2  2  0  0  0  0
  1  5  1  0  0  0  0
  2  9  1  0  0  0  0
  3  4  2  0  0  0  0
  3  8  1  0  0  0  0
  4 10  1  0  0  0  0
  5 12  2  0  0  0  0
  6  7  1  0  0  0  0
  6  8  2  0  0  0  0
  7 10  2  0  0  0  0
  7 14  1  0  0  0  0
  8 19  1  0  0  0  0
  9 11  2  0  0  0  0
  9 19  1  0  0  0  0
 10 23  1  0  0  0  0
 11 12  1  0  0  0  0
 11 28  1  0  0  0  0
 12 29  1  0  0  0  0
 13 15  2  0  0  0  0
 13 23  1  0  0  0  0
 14 15  1  0  0  0  0
 14 24  2  0  0  0  0
 15 16  1  0  0  0  0
 16 25  2  0  0  0  0
 16 26  1  0  0  0  0
 17 21  1  0  0  0  0
 18 21  1  0  0  0  0
 20 22  1  0  0  0  0
 20 27  1  0  0  0  0
 21 22  1  0  0  0  0
 22 23  1  0  0  0  0
  1 30  1  0  0  0  0
  2 31  1  0  0  0  0
  3 32  1  0  0  0  0
  4 33  1  0  0  0  0
  5 34  1  0  0  0  0
  6 35  1  0  0  0  0
 13 36  1  0  0  0  0
 17 37  1  0  0  0  0
 17 38  1  0  0  0  0
 17 39  1  0  0  0  0
 18 40  1  0  0  0  0
 18 41  1  0  0  0  0
 18 42  1  0  0  0  0
 19 43  1  0  0  0  0
 19 44  1  0  0  0  0
 20 45  1  0  0  0  0
 20 46  1  0  0  0  0
 21 47  1  0  0  0  0
 22 48  1  0  0  0  0
 26 49  1  0  0  0  0
 27 50  1  0  0  0  0
M  END
> <Hybrid2>
-4.762203216552734

> <Hybrid2>
-4.740288

$$$$
CHEMBL198160
  -OEChem-02152218473D

 52 55  0     1  0  0  0  0  0999 V2000
    4.9589  -29.0578   -7.5162 C   0  0  0  0  0  0  0  0  0  0  0  0
    5.5951  -27.9203   -7.9905 C   0  0  0  0  0  0  0  0  0  0  0  0
   12.5209  -25.1451  -12.9360 C   0  0  0  0  0  0  0  0  0  0  0  0
   13.3652  -27.2749  -12.1690 C   0  0  0  0  0  0  0  0  0  0  0  0
   13.6569  -24.5128  -12.4308 C   0  0  0  0  0  0  0  0  0  0  0  0
   14.5013  -26.6426  -11.6638 C   0  0  0  0  0  0  0  0  0  0  0  0
    5.4389  -30.2819   -7.9397 C   0  0  0  0  0  0  0  0  0  0  0  0
    6.6825  -28.0442   -8.8662 C   0  0  0  0  0  0  0  0  0  0  0  0
   12.3750  -26.5261  -12.8050 C   0  0  0  0  0  0  0  0  0  0  0  0
    7.1017  -29.3325   -9.2427 C   0  0  0  0  0  0  0  0  0  0  0  0
    8.1807  -29.4329  -10.1104 C   0  0  0  0  0  0  0  0  0  0  0  0
   14.6471  -25.2615  -11.7947 C   0  0  0  0  0  0  0  0  0  0  0  0
    8.7976  -28.2765  -10.5683 C   0  0  0  0  0  0  0  0  0  0  0  0
    7.3684  -26.9418   -9.3819 C   0  0  0  0  0  0  0  0  0  0  0  0
    6.3935  -24.5637  -11.2661 C   0  0  0  0  0  0  0  0  0  0  0  0
    8.4821  -23.8128  -10.0777 C   0  0  0  0  0  0  0  0  0  0  0  0
    9.9320  -28.3419  -11.4775 C   0  0  0  0  0  0  0  0  0  0  0  0
    5.8665  -24.9800   -9.9177 C   0  0  0  0  0  0  0  0  0  0  0  0
    6.9683  -25.5190   -9.0170 C   0  0  2  0  0  0  0  0  0  0  0  0
    8.1733  -23.3982  -12.4735 C   0  0  0  0  0  0  0  0  0  0  0  0
    8.8453  -24.5069   -7.7211 C   0  0  0  0  0  0  0  0  0  0  0  0
   11.1528  -27.2075  -13.3493 C   0  0  0  0  0  0  0  0  0  0  0  0
    6.4855  -30.4385   -8.7839 N   0  0  0  0  0  0  0  0  0  0  0  0
    8.4181  -27.0293  -10.2251 N   0  0  0  0  0  0  0  0  0  0  0  0
    7.6681  -23.9720  -11.2311 N   0  0  0  0  0  0  0  0  0  0  0  0
    8.0846  -24.5700   -8.9642 N   0  0  0  0  0  0  0  0  0  0  0  0
   10.0913  -27.2767  -12.3708 N   0  0  0  0  0  0  0  0  0  0  0  0
    5.6934  -24.6830  -12.2719 O   0  0  0  0  0  0  0  0  0  0  0  0
    9.4636  -23.0632  -10.0613 O   0  0  0  0  0  0  0  0  0  0  0  0
   10.7000  -29.3195  -11.4580 O   0  0  0  0  0  0  0  0  0  0  0  0
    8.6294  -30.6571  -10.5084 O   0  0  0  0  0  0  0  0  0  0  0  0
   15.7394  -24.6548  -11.3119 F   0  0  0  0  0  0  0  0  0  0  0  0
    4.1162  -28.9885   -6.8383 H   0  0  0  0  0  0  0  0  0  0  0  0
    5.2294  -26.9492   -7.6677 H   0  0  0  0  0  0  0  0  0  0  0  0
   11.7544  -24.5532  -13.4293 H   0  0  0  0  0  0  0  0  0  0  0  0
   13.2603  -28.3514  -12.0626 H   0  0  0  0  0  0  0  0  0  0  0  0
   13.7710  -23.4378  -12.5332 H   0  0  0  0  0  0  0  0  0  0  0  0
   15.2722  -27.2251  -11.1682 H   0  0  0  0  0  0  0  0  0  0  0  0
    4.9801  -31.2056   -7.6025 H   0  0  0  0  0  0  0  0  0  0  0  0
    5.3998  -24.0989   -9.4605 H   0  0  0  0  0  0  0  0  0  0  0  0
    5.0832  -25.7332  -10.0654 H   0  0  0  0  0  0  0  0  0  0  0  0
    6.5359  -25.5766   -7.9767 H   0  0  0  0  0  0  0  0  0  0  0  0
    7.8707  -22.3428  -12.5402 H   0  0  0  0  0  0  0  0  0  0  0  0
    9.2710  -23.4665  -12.4890 H   0  0  0  0  0  0  0  0  0  0  0  0
    7.7592  -23.9530  -13.3284 H   0  0  0  0  0  0  0  0  0  0  0  0
    8.4434  -23.7044   -7.0850 H   0  0  0  0  0  0  0  0  0  0  0  0
    8.7646  -25.4683   -7.1928 H   0  0  0  0  0  0  0  0  0  0  0  0
    9.9017  -24.3006   -7.9478 H   0  0  0  0  0  0  0  0  0  0  0  0
   10.7699  -26.6720  -14.2249 H   0  0  0  0  0  0  0  0  0  0  0  0
   11.3818  -28.2299  -13.6677 H   0  0  0  0  0  0  0  0  0  0  0  0
    9.3995  -26.5345  -12.3871 H   0  0  0  0  0  0  0  0  0  0  0  0
    9.3837  -30.5573  -11.1097 H   0  0  0  0  0  0  0  0  0  0  0  0
  1  2  2  0  0  0  0
  1  7  1  0  0  0  0
  2  8  1  0  0  0  0
  3  5  2  0  0  0  0
  3  9  1  0  0  0  0
  4  6  1  0  0  0  0
  4  9  2  0  0  0  0
  5 12  1  0  0  0  0
  6 12  2  0  0  0  0
  7 23  2  0  0  0  0
  8 10  1  0  0  0  0
  8 14  2  0  0  0  0
  9 22  1  0  0  0  0
 10 11  2  0  0  0  0
 10 23  1  0  0  0  0
 11 13  1  0  0  0  0
 11 31  1  0  0  0  0
 12 32  1  0  0  0  0
 13 17  1  0  0  0  0
 13 24  2  0  0  0  0
 14 19  1  0  0  0  0
 14 24  1  0  0  0  0
 15 18  1  0  0  0  0
 15 25  1  0  0  0  0
 15 28  2  0  0  0  0
 16 25  1  0  0  0  0
 16 26  1  0  0  0  0
 16 29  2  0  0  0  0
 17 27  1  0  0  0  0
 17 30  2  0  0  0  0
 18 19  1  0  0  0  0
 19 26  1  0  0  0  0
 20 25  1  0  0  0  0
 21 26  1  0  0  0  0
 22 27  1  0  0  0  0
  1 33  1  0  0  0  0
  2 34  1  0  0  0  0
  3 35  1  0  0  0  0
  4 36  1  0  0  0  0
  5 37  1  0  0  0  0
  6 38  1  0  0  0  0
  7 39  1  0  0  0  0
 18 40  1  0  0  0  0
 18 41  1  0  0  0  0
 19 42  1  0  0  0  0
 20 43  1  0  0  0  0
 20 44  1  0  0  0  0
 20 45  1  0  0  0  0
 21 46  1  0  0  0  0
 21 47  1  0  0  0  0
 21 48  1  0  0  0  0
 22 49  1  0  0  0  0
 22 50  1  0  0  0  0
 27 51  1  0  0  0  0
 31 52  1  0  0  0  0
M  END
> <Hybrid2>
-3.135071277618408

> <Hybrid2>
-3.135071

$$$$
CHEMBL198160
  -OEChem-02152218473D

 52 55  0     1  0  0  0  0  0999 V2000
   15.5496  -28.4129  -10.5023 C   0  0  0  0  0  0  0  0  0  0  0  0
   14.5982  -27.9510  -11.3995 C   0  0  0  0  0  0  0  0  0  0  0  0
    5.6622  -28.5684  -10.6504 C   0  0  0  0  0  0  0  0  0  0  0  0
    6.2311  -27.8529   -8.4140 C   0  0  0  0  0  0  0  0  0  0  0  0
    4.9593  -29.6524  -10.1249 C   0  0  0  0  0  0  0  0  0  0  0  0
    5.5282  -28.9370   -7.8884 C   0  0  0  0  0  0  0  0  0  0  0  0
   15.1738  -28.5346   -9.1787 C   0  0  0  0  0  0  0  0  0  0  0  0
   13.3116  -27.6285  -10.9460 C   0  0  0  0  0  0  0  0  0  0  0  0
    6.2982  -27.6686   -9.7950 C   0  0  0  0  0  0  0  0  0  0  0  0
   13.0196  -27.7845   -9.5794 C   0  0  0  0  0  0  0  0  0  0  0  0
   11.7396  -27.4598   -9.1512 C   0  0  0  0  0  0  0  0  0  0  0  0
    4.8923  -29.8368   -8.7439 C   0  0  0  0  0  0  0  0  0  0  0  0
   10.8083  -27.0001  -10.0726 C   0  0  0  0  0  0  0  0  0  0  0  0
   12.3060  -27.1580  -11.7940 C   0  0  0  0  0  0  0  0  0  0  0  0
   12.1212  -24.5069  -13.5527 C   0  0  0  0  0  0  0  0  0  0  0  0
   10.4882  -26.1798  -14.4873 C   0  0  0  0  0  0  0  0  0  0  0  0
    9.4565  -26.6514   -9.6616 C   0  0  0  0  0  0  0  0  0  0  0  0
   13.1538  -25.6027  -13.5978 C   0  0  0  0  0  0  0  0  0  0  0  0
   12.5529  -26.9650  -13.2837 C   0  0  2  0  0  0  0  0  0  0  0  0
    9.8552  -23.8320  -14.1801 C   0  0  0  0  0  0  0  0  0  0  0  0
   11.1066  -28.5848  -14.5132 C   0  0  0  0  0  0  0  0  0  0  0  0
    7.0543  -26.5011  -10.3600 C   0  0  0  0  0  0  0  0  0  0  0  0
   13.9418  -28.2325   -8.7062 N   0  0  0  0  0  0  0  0  0  0  0  0
   11.0593  -26.8405  -11.3873 N   0  0  0  0  0  0  0  0  0  0  0  0
   10.8580  -24.8823  -14.0420 N   0  0  0  0  0  0  0  0  0  0  0  0
   11.3788  -27.2042  -14.1288 N   0  0  0  0  0  0  0  0  0  0  0  0
    8.4410  -26.8239  -10.6087 N   0  0  0  0  0  0  0  0  0  0  0  0
   12.4312  -23.3742  -13.1824 O   0  0  0  0  0  0  0  0  0  0  0  0
    9.4602  -26.3849  -15.1405 O   0  0  0  0  0  0  0  0  0  0  0  0
    9.2400  -26.2025   -8.5225 O   0  0  0  0  0  0  0  0  0  0  0  0
   11.4015  -27.5919   -7.8372 O   0  0  0  0  0  0  0  0  0  0  0  0
    4.2150  -30.8763   -8.2389 F   0  0  0  0  0  0  0  0  0  0  0  0
   16.5510  -28.6690  -10.8281 H   0  0  0  0  0  0  0  0  0  0  0  0
   14.8777  -27.8487  -12.4446 H   0  0  0  0  0  0  0  0  0  0  0  0
    5.7096  -28.4335  -11.7278 H   0  0  0  0  0  0  0  0  0  0  0  0
    6.7232  -27.1569   -7.7397 H   0  0  0  0  0  0  0  0  0  0  0  0
    4.4637  -30.3525  -10.7906 H   0  0  0  0  0  0  0  0  0  0  0  0
    5.4761  -29.0811   -6.8133 H   0  0  0  0  0  0  0  0  0  0  0  0
   15.8764  -28.8897   -8.4319 H   0  0  0  0  0  0  0  0  0  0  0  0
   13.5894  -25.6031  -14.6045 H   0  0  0  0  0  0  0  0  0  0  0  0
   13.9540  -25.3590  -12.8885 H   0  0  0  0  0  0  0  0  0  0  0  0
   13.3271  -27.7336  -13.5710 H   0  0  0  0  0  0  0  0  0  0  0  0
    9.9247  -23.3877  -15.1839 H   0  0  0  0  0  0  0  0  0  0  0  0
    8.8526  -24.2616  -14.0380 H   0  0  0  0  0  0  0  0  0  0  0  0
   10.0318  -23.0547  -13.4221 H   0  0  0  0  0  0  0  0  0  0  0  0
   11.5593  -28.7888  -15.4947 H   0  0  0  0  0  0  0  0  0  0  0  0
   11.5355  -29.2655  -13.7631 H   0  0  0  0  0  0  0  0  0  0  0  0
   10.0194  -28.7415  -14.5713 H   0  0  0  0  0  0  0  0  0  0  0  0
    6.6093  -26.1742  -11.3061 H   0  0  0  0  0  0  0  0  0  0  0  0
    7.0271  -25.6468   -9.6754 H   0  0  0  0  0  0  0  0  0  0  0  0
    8.6820  -27.1341  -11.5443 H   0  0  0  0  0  0  0  0  0  0  0  0
   10.4788  -27.3265   -7.7012 H   0  0  0  0  0  0  0  0  0  0  0  0
  1  2  2  0  0  0  0
  1  7  1  0  0  0  0
  2  8  1  0  0  0  0
  3  5  2  0  0  0  0
  3  9  1  0  0  0  0
  4  6  1  0  0  0  0
  4  9  2  0  0  0  0
  5 12  1  0  0  0  0
  6 12  2  0  0  0  0
  7 23  2  0  0  0  0
  8 10  1  0  0  0  0
  8 14  2  0  0  0  0
  9 22  1  0  0  0  0
 10 11  2  0  0  0  0
 10 23  1  0  0  0  0
 11 13  1  0  0  0  0
 11 31  1  0  0  0  0
 12 32  1  0  0  0  0
 13 17  1  0  0  0  0
 13 24  2  0  0  0  0
 14 19  1  0  0  0  0
 14 24  1  0  0  0  0
 15 18  1  0  0  0  0
 15 25  1  0  0  0  0
 15 28  2  0  0  0  0
 16 25  1  0  0  0  0
 16 26  1  0  0  0  0
 16 29  2  0  0  0  0
 17 27  1  0  0  0  0
 17 30  2  0  0  0  0
 18 19  1  0  0  0  0
 19 26  1  0  0  0  0
 20 25  1  0  0  0  0
 21 26  1  0  0  0  0
 22 27  1  0  0  0  0
  1 33  1  0  0  0  0
  2 34  1  0  0  0  0
  3 35  1  0  0  0  0
  4 36  1  0  0  0  0
  5 37  1  0  0  0  0
  6 38  1  0  0  0  0
  7 39  1  0  0  0  0
 18 40  1  0  0  0  0
 18 41  1  0  0  0  0
 19 42  1  0  0  0  0
 20 43  1  0  0  0  0
 20 44  1  0  0  0  0
 20 45  1  0  0  0  0
 21 46  1  0  0  0  0
 21 47  1  0  0  0  0
 21 48  1  0  0  0  0
 22 49  1  0  0  0  0
 22 50  1  0  0  0  0
 27 51  1  0  0  0  0
 31 52  1  0  0  0  0
M  END
> <Hybrid2>
-3.135071277618408

> <Hybrid2>
-2.160413

$$$$
CHEMBL32865
  -OEChem-02152218473D

 57 61  0     1  0  0  0  0  0999 V2000
   15.0711  -29.5960  -10.5546 C   0  0  0  0  0  0  0  0  0  0  0  0
   14.0055  -30.0099   -9.7555 C   0  0  0  0  0  0  0  0  0  0  0  0
   15.2820  -28.2368  -10.7867 C   0  0  0  0  0  0  0  0  0  0  0  0
   14.4190  -26.5772  -17.4749 C   0  0  0  0  0  0  0  0  0  0  0  0
   14.0710  -27.3380  -16.3687 C   0  0  0  0  0  0  0  0  0  0  0  0
   13.1505  -29.0647   -9.1886 C   0  0  0  0  0  0  0  0  0  0  0  0
   14.4271  -27.2916  -10.2199 C   0  0  0  0  0  0  0  0  0  0  0  0
   11.1280  -26.1895  -10.8814 C   0  0  0  0  0  0  0  0  0  0  0  0
    8.7126  -26.2380  -10.8781 C   0  0  0  0  0  0  0  0  0  0  0  0
    9.9332  -26.7167   -8.8488 C   0  0  0  0  0  0  0  0  0  0  0  0
   13.7069  -25.4154  -17.7010 C   0  0  0  0  0  0  0  0  0  0  0  0
   12.6273  -27.6314  -14.4020 C   0  0  0  0  0  0  0  0  0  0  0  0
   13.0297  -26.9144  -15.5314 C   0  0  0  0  0  0  0  0  0  0  0  0
    9.9161  -26.0462  -11.5568 C   0  0  0  0  0  0  0  0  0  0  0  0
   13.3613  -27.7055   -9.4208 C   0  0  0  0  0  0  0  0  0  0  0  0
   11.1366  -26.5248   -9.5275 C   0  0  0  0  0  0  0  0  0  0  0  0
    8.7211  -26.5733   -9.5242 C   0  0  0  0  0  0  0  0  0  0  0  0
   12.3608  -25.7168  -15.8406 C   0  0  0  0  0  0  0  0  0  0  0  0
   11.3329  -25.3151  -14.9984 C   0  0  0  0  0  0  0  0  0  0  0  0
   11.0073  -26.0972  -13.8984 C   0  0  0  0  0  0  0  0  0  0  0  0
    9.9079  -25.6980  -12.9688 C   0  0  0  0  0  0  0  0  0  0  0  0
    4.6687  -29.2396   -9.4098 C   0  0  0  0  0  0  0  0  0  0  0  0
    5.2022  -27.8889   -8.9419 C   0  0  0  0  0  0  0  0  0  0  0  0
    5.7356  -30.2632   -9.0521 C   0  0  0  0  0  0  0  0  0  0  0  0
   12.4327  -26.6781   -8.8055 C   0  0  0  0  0  0  0  0  0  0  0  0
    7.4256  -26.7809   -8.7944 C   0  0  0  0  0  0  0  0  0  0  0  0
   12.6966  -24.9765  -16.9142 N   0  0  0  0  0  0  0  0  0  0  0  0
   11.6302  -27.2488  -13.5774 N   0  0  0  0  0  0  0  0  0  0  0  0
    6.6223  -27.8656   -9.3925 N   0  0  1  0  0  0  0  0  0  0  0  0
    8.9669  -25.0469  -13.4465 O   0  0  0  0  0  0  0  0  0  0  0  0
    7.7092  -29.7975  -10.7480 O   0  0  0  0  0  0  0  0  0  0  0  0
    8.1661  -29.6528   -8.2577 O   0  0  0  0  0  0  0  0  0  0  0  0
   10.6510  -24.1618  -15.2501 O   0  0  0  0  0  0  0  0  0  0  0  0
    7.2958  -29.4653   -9.4005 S   0  0  0  0  0  0  0  0  0  0  0  0
   15.7375  -30.3321  -10.9948 H   0  0  0  0  0  0  0  0  0  0  0  0
   13.8418  -31.0682   -9.5737 H   0  0  0  0  0  0  0  0  0  0  0  0
   16.1123  -27.9141  -11.4079 H   0  0  0  0  0  0  0  0  0  0  0  0
   15.2202  -26.8825  -18.1375 H   0  0  0  0  0  0  0  0  0  0  0  0
   14.6114  -28.2587  -16.1635 H   0  0  0  0  0  0  0  0  0  0  0  0
   12.3226  -29.3965   -8.5675 H   0  0  0  0  0  0  0  0  0  0  0  0
   14.5990  -26.2348  -10.4063 H   0  0  0  0  0  0  0  0  0  0  0  0
   12.0676  -26.0412  -11.4091 H   0  0  0  0  0  0  0  0  0  0  0  0
    7.7664  -26.1266  -11.4031 H   0  0  0  0  0  0  0  0  0  0  0  0
    9.9400  -26.9775   -7.7930 H   0  0  0  0  0  0  0  0  0  0  0  0
   13.9345  -24.7804  -18.5510 H   0  0  0  0  0  0  0  0  0  0  0  0
   13.1120  -28.5620  -14.1209 H   0  0  0  0  0  0  0  0  0  0  0  0
    3.7428  -29.4737   -8.8696 H   0  0  0  0  0  0  0  0  0  0  0  0
    4.4425  -29.2426  -10.4800 H   0  0  0  0  0  0  0  0  0  0  0  0
    4.6438  -27.0651   -9.3996 H   0  0  0  0  0  0  0  0  0  0  0  0
    5.1481  -27.8050   -7.8528 H   0  0  0  0  0  0  0  0  0  0  0  0
    5.6996  -30.5582   -8.0014 H   0  0  0  0  0  0  0  0  0  0  0  0
    5.6602  -31.1460   -9.6941 H   0  0  0  0  0  0  0  0  0  0  0  0
   12.2574  -26.9436   -7.7481 H   0  0  0  0  0  0  0  0  0  0  0  0
   12.9599  -25.7095   -8.7477 H   0  0  0  0  0  0  0  0  0  0  0  0
    7.6101  -27.0370   -7.7454 H   0  0  0  0  0  0  0  0  0  0  0  0
    6.8183  -25.8698   -8.8048 H   0  0  0  0  0  0  0  0  0  0  0  0
    9.9691  -24.0226  -14.5749 H   0  0  0  0  0  0  0  0  0  0  0  0
  1  2  1  0  0  0  0
  1  3  2  0  0  0  0
  2  6  2  0  0  0  0
  3  7  1  0  0  0  0
  4  5  2  0  0  0  0
  4 11  1  0  0  0  0
  5 13  1  0  0  0  0
  6 15  1  0  0  0  0
  7 15  2  0  0  0  0
  8 14  2  0  0  0  0
  8 16  1  0  0  0  0
  9 14  1  0  0  0  0
  9 17  2  0  0  0  0
 10 16  2  0  0  0  0
 10 17  1  0  0  0  0
 11 27  2  0  0  0  0
 12 13  2  0  0  0  0
 12 28  1  0  0  0  0
 13 18  1  0  0  0  0
 14 21  1  0  0  0  0
 15 25  1  0  0  0  0
 16 25  1  0  0  0  0
 17 26  1  0  0  0  0
 18 19  2  0  0  0  0
 18 27  1  0  0  0  0
 19 20  1  0  0  0  0
 19 33  1  0  0  0  0
 20 21  1  0  0  0  0
 20 28  2  0  0  0  0
 21 30  2  0  0  0  0
 22 23  1  0  0  0  0
 22 24  1  0  0  0  0
 23 29  1  0  0  0  0
 24 34  1  0  0  0  0
 26 29  1  0  0  0  0
 29 34  1  0  0  0  0
 31 34  2  0  0  0  0
 32 34  2  0  0  0  0
  1 35  1  0  0  0  0
  2 36  1  0  0  0  0
  3 37  1  0  0  0  0
  4 38  1  0  0  0  0
  5 39  1  0  0  0  0
  6 40  1  0  0  0  0
  7 41  1  0  0  0  0
  8 42  1  0  0  0  0
  9 43  1  0  0  0  0
 10 44  1  0  0  0  0
 11 45  1  0  0  0  0
 12 46  1  0  0  0  0
 22 47  1  0  0  0  0
 22 48  1  0  0  0  0
 23 49  1  0  0  0  0
 23 50  1  0  0  0  0
 24 51  1  0  0  0  0
 24 52  1  0  0  0  0
 25 53  1  0  0  0  0
 25 54  1  0  0  0  0
 26 55  1  0  0  0  0
 26 56  1  0  0  0  0
 33 57  1  0  0  0  0
M  END
> <Hybrid2>
-0.6620360016822815

> <Hybrid2>
-0.662036

$$$$
CHEMBL32865
  -OEChem-02152218473D

 57 61  0     1  0  0  0  0  0999 V2000
    6.4496  -21.8363  -12.8128 C   0  0  0  0  0  0  0  0  0  0  0  0
    7.7188  -22.2355  -12.3943 C   0  0  0  0  0  0  0  0  0  0  0  0
    5.3395  -22.0813  -12.0044 C   0  0  0  0  0  0  0  0  0  0  0  0
   14.5394  -25.2093  -13.4409 C   0  0  0  0  0  0  0  0  0  0  0  0
   13.1657  -25.0330  -13.5143 C   0  0  0  0  0  0  0  0  0  0  0  0
    7.8781  -22.8798  -11.1675 C   0  0  0  0  0  0  0  0  0  0  0  0
    5.4988  -22.7256  -10.7776 C   0  0  0  0  0  0  0  0  0  0  0  0
    8.3185  -25.8512   -9.5223 C   0  0  0  0  0  0  0  0  0  0  0  0
    7.3841  -28.0717   -9.3404 C   0  0  0  0  0  0  0  0  0  0  0  0
    6.0158  -26.1415   -8.8513 C   0  0  0  0  0  0  0  0  0  0  0  0
   15.0213  -26.0832  -12.4859 C   0  0  0  0  0  0  0  0  0  0  0  0
   10.9349  -25.6017  -12.6549 C   0  0  0  0  0  0  0  0  0  0  0  0
   12.3257  -25.7319  -12.6363 C   0  0  0  0  0  0  0  0  0  0  0  0
    8.4631  -27.2348   -9.6247 C   0  0  0  0  0  0  0  0  0  0  0  0
    6.7681  -23.1249  -10.3591 C   0  0  0  0  0  0  0  0  0  0  0  0
    7.0948  -25.3046   -9.1356 C   0  0  0  0  0  0  0  0  0  0  0  0
    6.1604  -27.5251   -8.9537 C   0  0  0  0  0  0  0  0  0  0  0  0
   12.9066  -26.6012  -11.6961 C   0  0  0  0  0  0  0  0  0  0  0  0
   12.0570  -27.2839  -10.8363 C   0  0  0  0  0  0  0  0  0  0  0  0
   10.6861  -27.0873  -10.9337 C   0  0  0  0  0  0  0  0  0  0  0  0
    9.7397  -27.8041  -10.0266 C   0  0  0  0  0  0  0  0  0  0  0  0
    2.6823  -30.2516  -10.9539 C   0  0  0  0  0  0  0  0  0  0  0  0
    3.4046  -30.0687   -9.6224 C   0  0  0  0  0  0  0  0  0  0  0  0
    2.3585  -28.8525  -11.4557 C   0  0  0  0  0  0  0  0  0  0  0  0
    6.9404  -23.8251   -9.0262 C   0  0  0  0  0  0  0  0  0  0  0  0
    4.9995  -28.4264   -8.6466 C   0  0  0  0  0  0  0  0  0  0  0  0
   14.2402  -26.7738  -11.6226 N   0  0  0  0  0  0  0  0  0  0  0  0
   10.1012  -26.2612  -11.8239 N   0  0  0  0  0  0  0  0  0  0  0  0
    4.3901  -28.9794   -9.8724 N   0  0  1  0  0  0  0  0  0  0  0  0
   10.0816  -28.9233   -9.6167 O   0  0  0  0  0  0  0  0  0  0  0  0
    3.3358  -26.6435  -10.4181 O   0  0  0  0  0  0  0  0  0  0  0  0
    4.6903  -27.8482  -12.1919 O   0  0  0  0  0  0  0  0  0  0  0  0
   12.5661  -28.1402   -9.9057 O   0  0  0  0  0  0  0  0  0  0  0  0
    3.7907  -27.8614  -11.0571 S   0  0  0  0  0  0  0  0  0  0  0  0
    6.3259  -21.3334  -13.7675 H   0  0  0  0  0  0  0  0  0  0  0  0
    8.5834  -22.0438  -13.0231 H   0  0  0  0  0  0  0  0  0  0  0  0
    4.3513  -21.7696  -12.3294 H   0  0  0  0  0  0  0  0  0  0  0  0
   15.2103  -24.6812  -14.1082 H   0  0  0  0  0  0  0  0  0  0  0  0
   12.7545  -24.3512  -14.2544 H   0  0  0  0  0  0  0  0  0  0  0  0
    8.8709  -23.1875  -10.8496 H   0  0  0  0  0  0  0  0  0  0  0  0
    4.6282  -22.9125  -10.1544 H   0  0  0  0  0  0  0  0  0  0  0  0
    9.1590  -25.1970   -9.7427 H   0  0  0  0  0  0  0  0  0  0  0  0
    7.4949  -29.1509   -9.4198 H   0  0  0  0  0  0  0  0  0  0  0  0
    5.0616  -25.7152   -8.5504 H   0  0  0  0  0  0  0  0  0  0  0  0
   16.0868  -26.2605  -12.3819 H   0  0  0  0  0  0  0  0  0  0  0  0
   10.4382  -24.9429  -13.3616 H   0  0  0  0  0  0  0  0  0  0  0  0
    3.3513  -30.7492  -11.6671 H   0  0  0  0  0  0  0  0  0  0  0  0
    1.7837  -30.8669  -10.8516 H   0  0  0  0  0  0  0  0  0  0  0  0
    2.7051  -29.7755   -8.8321 H   0  0  0  0  0  0  0  0  0  0  0  0
    3.9206  -30.9877   -9.3300 H   0  0  0  0  0  0  0  0  0  0  0  0
    2.1786  -28.8233  -12.5322 H   0  0  0  0  0  0  0  0  0  0  0  0
    1.5018  -28.4341  -10.9189 H   0  0  0  0  0  0  0  0  0  0  0  0
    7.8053  -23.3838   -8.5005 H   0  0  0  0  0  0  0  0  0  0  0  0
    6.0836  -23.5729   -8.3769 H   0  0  0  0  0  0  0  0  0  0  0  0
    5.3182  -29.2664   -8.0198 H   0  0  0  0  0  0  0  0  0  0  0  0
    4.2191  -27.8888   -8.0979 H   0  0  0  0  0  0  0  0  0  0  0  0
   11.8483  -28.5352   -9.3869 H   0  0  0  0  0  0  0  0  0  0  0  0
  1  2  1  0  0  0  0
  1  3  2  0  0  0  0
  2  6  2  0  0  0  0
  3  7  1  0  0  0  0
  4  5  2  0  0  0  0
  4 11  1  0  0  0  0
  5 13  1  0  0  0  0
  6 15  1  0  0  0  0
  7 15  2  0  0  0  0
  8 14  2  0  0  0  0
  8 16  1  0  0  0  0
  9 14  1  0  0  0  0
  9 17  2  0  0  0  0
 10 16  2  0  0  0  0
 10 17  1  0  0  0  0
 11 27  2  0  0  0  0
 12 13  2  0  0  0  0
 12 28  1  0  0  0  0
 13 18  1  0  0  0  0
 14 21  1  0  0  0  0
 15 25  1  0  0  0  0
 16 25  1  0  0  0  0
 17 26  1  0  0  0  0
 18 19  2  0  0  0  0
 18 27  1  0  0  0  0
 19 20  1  0  0  0  0
 19 33  1  0  0  0  0
 20 21  1  0  0  0  0
 20 28  2  0  0  0  0
 21 30  2  0  0  0  0
 22 23  1  0  0  0  0
 22 24  1  0  0  0  0
 23 29  1  0  0  0  0
 24 34  1  0  0  0  0
 26 29  1  0  0  0  0
 29 34  1  0  0  0  0
 31 34  2  0  0  0  0
 32 34  2  0  0  0  0
  1 35  1  0  0  0  0
  2 36  1  0  0  0  0
  3 37  1  0  0  0  0
  4 38  1  0  0  0  0
  5 39  1  0  0  0  0
  6 40  1  0  0  0  0
  7 41  1  0  0  0  0
  8 42  1  0  0  0  0
  9 43  1  0  0  0  0
 10 44  1  0  0  0  0
 11 45  1  0  0  0  0
 12 46  1  0  0  0  0
 22 47  1  0  0  0  0
 22 48  1  0  0  0  0
 23 49  1  0  0  0  0
 23 50  1  0  0  0  0
 24 51  1  0  0  0  0
 24 52  1  0  0  0  0
 25 53  1  0  0  0  0
 25 54  1  0  0  0  0
 26 55  1  0  0  0  0
 26 56  1  0  0  0  0
 33 57  1  0  0  0  0
M  END
> <Hybrid2>
-0.6620360016822815

> <Hybrid2>
-0.435464

$$$$
CHEMBL211028
  -OEChem-02152218473D

 28 28  0     0  0  0  0  0  0999 V2000
    7.8711  -29.7388   -9.1730 C   0  0  0  0  0  0  0  0  0  0  0  0
    6.7566  -30.1041   -8.4181 C   0  0  0  0  0  0  0  0  0  0  0  0
    6.8083  -27.6411   -9.7272 C   0  0  0  0  0  0  0  0  0  0  0  0
    7.8970  -28.5073   -9.8276 C   0  0  0  0  0  0  0  0  0  0  0  0
    5.6679  -29.2379   -8.3177 C   0  0  0  0  0  0  0  0  0  0  0  0
    5.6937  -28.0064   -8.9723 C   0  0  0  0  0  0  0  0  0  0  0  0
   12.6718  -27.4977  -10.2812 C   0  0  0  0  0  0  0  0  0  0  0  0
   13.8039  -27.2168  -10.9436 C   0  0  0  0  0  0  0  0  0  0  0  0
   11.3388  -26.9514  -10.6789 C   0  0  0  0  0  0  0  0  0  0  0  0
   15.0630  -27.8356  -10.4580 C   0  0  0  0  0  0  0  0  0  0  0  0
    9.1034  -28.1135  -10.6443 C   0  0  0  0  0  0  0  0  0  0  0  0
   10.1538  -27.3652   -9.8245 C   0  0  0  0  0  0  0  0  0  0  0  0
   11.1916  -26.2184  -11.6541 O   0  0  0  0  0  0  0  0  0  0  0  0
   15.1690  -28.5856   -9.5009 O   0  0  0  0  0  0  0  0  0  0  0  0
   13.8416  -26.3934  -12.0481 O   0  0  0  0  0  0  0  0  0  0  0  0
   16.0997  -27.4477  -11.2376 O   0  0  0  0  0  0  0  0  0  0  0  0
    4.3165  -29.7483   -7.3679 Cl  0  0  0  0  0  0  0  0  0  0  0  0
    4.3761  -26.8903   -8.8861 Cl  0  0  0  0  0  0  0  0  0  0  0  0
    8.7148  -30.4203   -9.2465 H   0  0  0  0  0  0  0  0  0  0  0  0
    6.7537  -31.0678   -7.9147 H   0  0  0  0  0  0  0  0  0  0  0  0
    6.8366  -26.6827  -10.2407 H   0  0  0  0  0  0  0  0  0  0  0  0
   12.6741  -28.1624   -9.4228 H   0  0  0  0  0  0  0  0  0  0  0  0
    8.7713  -27.4788  -11.4755 H   0  0  0  0  0  0  0  0  0  0  0  0
    9.5452  -29.0058  -11.1058 H   0  0  0  0  0  0  0  0  0  0  0  0
    9.7202  -26.4468   -9.4110 H   0  0  0  0  0  0  0  0  0  0  0  0
   10.4863  -27.9630   -8.9687 H   0  0  0  0  0  0  0  0  0  0  0  0
   12.9560  -26.0724  -12.2488 H   0  0  0  0  0  0  0  0  0  0  0  0
   16.9485  -27.8411  -10.9423 H   0  0  0  0  0  0  0  0  0  0  0  0
  1  2  2  0  0  0  0
  1  4  1  0  0  0  0
  2  5  1  0  0  0  0
  3  4  2  0  0  0  0
  3  6  1  0  0  0  0
  4 11  1  0  0  0  0
  5  6  2  0  0  0  0
  5 17  1  0  0  0  0
  6 18  1  0  0  0  0
  7  8  2  0  0  0  0
  7  9  1  0  0  0  0
  8 10  1  0  0  0  0
  8 15  1  0  0  0  0
  9 12  1  0  0  0  0
  9 13  2  0  0  0  0
 10 14  2  0  0  0  0
 10 16  1  0  0  0  0
 11 12  1  0  0  0  0
  1 19  1  0  0  0  0
  2 20  1  0  0  0  0
  3 21  1  0  0  0  0
  7 22  1  0  0  0  0
 11 23  1  0  0  0  0
 11 24  1  0  0  0  0
 12 25  1  0  0  0  0
 12 26  1  0  0  0  0
 15 27  1  0  0  0  0
 16 28  1  0  0  0  0
M  END
> <Hybrid2>
-4.9251580238342285

> <Hybrid2>
-4.925158

$$$$
CHEMBL211028
  -OEChem-02152218473D

 28 28  0     0  0  0  0  0  0999 V2000
    9.8255  -25.8431   -9.7883 C   0  0  0  0  0  0  0  0  0  0  0  0
   11.0943  -26.4023   -9.9399 C   0  0  0  0  0  0  0  0  0  0  0  0
    9.4824  -25.9743  -12.1762 C   0  0  0  0  0  0  0  0  0  0  0  0
    9.0195  -25.6292  -10.9065 C   0  0  0  0  0  0  0  0  0  0  0  0
   11.5572  -26.7475  -11.2097 C   0  0  0  0  0  0  0  0  0  0  0  0
   10.7512  -26.5335  -12.3279 C   0  0  0  0  0  0  0  0  0  0  0  0
    6.9816  -28.3552   -9.4356 C   0  0  0  0  0  0  0  0  0  0  0  0
    6.6311  -29.2486   -8.4984 C   0  0  0  0  0  0  0  0  0  0  0  0
    6.8024  -26.8815   -9.2630 C   0  0  0  0  0  0  0  0  0  0  0  0
    6.8756  -30.6848   -8.7840 C   0  0  0  0  0  0  0  0  0  0  0  0
    7.6471  -25.0238  -10.7410 C   0  0  0  0  0  0  0  0  0  0  0  0
    6.5591  -26.0752  -10.5264 C   0  0  0  0  0  0  0  0  0  0  0  0
    6.8633  -26.3347   -8.1643 O   0  0  0  0  0  0  0  0  0  0  0  0
    7.3718  -31.1374   -9.8033 O   0  0  0  0  0  0  0  0  0  0  0  0
    6.0677  -28.8891   -7.2933 O   0  0  0  0  0  0  0  0  0  0  0  0
    6.4659  -31.4406   -7.7382 O   0  0  0  0  0  0  0  0  0  0  0  0
   13.1384  -27.4359  -11.3318 Cl  0  0  0  0  0  0  0  0  0  0  0  0
   11.2684  -26.9401  -13.9267 Cl  0  0  0  0  0  0  0  0  0  0  0  0
    9.4732  -25.5764   -8.7952 H   0  0  0  0  0  0  0  0  0  0  0  0
   11.7090  -26.5619   -9.0574 H   0  0  0  0  0  0  0  0  0  0  0  0
    8.8474  -25.8042  -13.0428 H   0  0  0  0  0  0  0  0  0  0  0  0
    7.4370  -28.6705  -10.3693 H   0  0  0  0  0  0  0  0  0  0  0  0
    7.4131  -24.4366  -11.6380 H   0  0  0  0  0  0  0  0  0  0  0  0
    7.6557  -24.3093   -9.9081 H   0  0  0  0  0  0  0  0  0  0  0  0
    5.5843  -25.5861  -10.4121 H   0  0  0  0  0  0  0  0  0  0  0  0
    6.4730  -26.7374  -11.3951 H   0  0  0  0  0  0  0  0  0  0  0  0
    5.9754  -27.9314   -7.2465 H   0  0  0  0  0  0  0  0  0  0  0  0
    6.6148  -32.3974   -7.8960 H   0  0  0  0  0  0  0  0  0  0  0  0
  1  2  2  0  0  0  0
  1  4  1  0  0  0  0
  2  5  1  0  0  0  0
  3  4  2  0  0  0  0
  3  6  1  0  0  0  0
  4 11  1  0  0  0  0
  5  6  2  0  0  0  0
  5 17  1  0  0  0  0
  6 18  1  0  0  0  0
  7  8  2  0  0  0  0
  7  9  1  0  0  0  0
  8 10  1  0  0  0  0
  8 15  1  0  0  0  0
  9 12  1  0  0  0  0
  9 13  2  0  0  0  0
 10 14  2  0  0  0  0
 10 16  1  0  0  0  0
 11 12  1  0  0  0  0
  1 19  1  0  0  0  0
  2 20  1  0  0  0  0
  3 21  1  0  0  0  0
  7 22  1  0  0  0  0
 11 23  1  0  0  0  0
 11 24  1  0  0  0  0
 12 25  1  0  0  0  0
 12 26  1  0  0  0  0
 15 27  1  0  0  0  0
 16 28  1  0  0  0  0
M  END
> <Hybrid2>
-4.9251580238342285

> <Hybrid2>
-3.912467

$$$$
CHEMBL216874
  -OEChem-02152218473D

 36 38  0     0  0  0  0  0  0999 V2000
    5.6099  -30.2460   -7.8089 C   0  0  0  0  0  0  0  0  0  0  0  0
   13.2755  -26.2706  -12.1383 C   0  0  0  0  0  0  0  0  0  0  0  0
   13.0315  -28.6731  -12.0657 C   0  0  0  0  0  0  0  0  0  0  0  0
   14.5397  -26.3815  -11.5594 C   0  0  0  0  0  0  0  0  0  0  0  0
   14.2957  -28.7840  -11.4869 C   0  0  0  0  0  0  0  0  0  0  0  0
    5.7947  -28.8376   -7.9202 C   0  0  0  0  0  0  0  0  0  0  0  0
    6.4458  -30.9457   -8.6511 C   0  0  0  0  0  0  0  0  0  0  0  0
   12.5214  -27.4164  -12.3914 C   0  0  0  0  0  0  0  0  0  0  0  0
    8.1343  -24.7970   -9.9740 C   0  0  0  0  0  0  0  0  0  0  0  0
   15.0498  -27.6382  -11.2337 C   0  0  0  0  0  0  0  0  0  0  0  0
    6.7652  -28.5145   -8.8431 C   0  0  0  0  0  0  0  0  0  0  0  0
    8.6345  -25.9617  -10.5195 C   0  0  0  0  0  0  0  0  0  0  0  0
    7.1455  -24.9587   -9.0251 C   0  0  0  0  0  0  0  0  0  0  0  0
    7.2419  -27.2198   -9.2369 C   0  0  0  0  0  0  0  0  0  0  0  0
    9.7023  -25.9300  -11.5519 C   0  0  0  0  0  0  0  0  0  0  0  0
   11.1700  -27.2986  -13.0110 C   0  0  0  0  0  0  0  0  0  0  0  0
    8.2098  -27.1945  -10.1729 N   0  0  0  0  0  0  0  0  0  0  0  0
    6.6736  -26.1597   -8.6313 N   0  0  0  0  0  0  0  0  0  0  0  0
   10.1260  -27.1636  -12.0270 N   0  0  0  0  0  0  0  0  0  0  0  0
   10.1593  -24.8475  -11.9094 O   0  0  0  0  0  0  0  0  0  0  0  0
    8.5805  -23.5732  -10.3417 O   0  0  0  0  0  0  0  0  0  0  0  0
    6.5901  -23.8568   -8.4295 O   0  0  0  0  0  0  0  0  0  0  0  0
   16.2650  -27.7450  -10.6803 F   0  0  0  0  0  0  0  0  0  0  0  0
    7.4484  -29.9059   -9.5708 S   0  0  0  0  0  0  0  0  0  0  0  0
    4.9005  -30.7222   -7.1447 H   0  0  0  0  0  0  0  0  0  0  0  0
   12.8862  -25.2870  -12.3879 H   0  0  0  0  0  0  0  0  0  0  0  0
   12.4512  -29.5714  -12.2595 H   0  0  0  0  0  0  0  0  0  0  0  0
   15.1272  -25.4896  -11.3629 H   0  0  0  0  0  0  0  0  0  0  0  0
   14.6930  -29.7622  -11.2328 H   0  0  0  0  0  0  0  0  0  0  0  0
    5.2402  -28.1047   -7.3469 H   0  0  0  0  0  0  0  0  0  0  0  0
    6.5161  -32.0178   -8.7698 H   0  0  0  0  0  0  0  0  0  0  0  0
   11.1131  -26.4241  -13.6743 H   0  0  0  0  0  0  0  0  0  0  0  0
   10.9298  -28.1779  -13.6244 H   0  0  0  0  0  0  0  0  0  0  0  0
    9.7417  -28.0194  -11.6351 H   0  0  0  0  0  0  0  0  0  0  0  0
    9.2755  -23.6496  -11.0186 H   0  0  0  0  0  0  0  0  0  0  0  0
    5.9170  -24.1336   -7.7922 H   0  0  0  0  0  0  0  0  0  0  0  0
  1  6  1  0  0  0  0
  1  7  2  0  0  0  0
  2  4  2  0  0  0  0
  2  8  1  0  0  0  0
  3  5  1  0  0  0  0
  3  8  2  0  0  0  0
  4 10  1  0  0  0  0
  5 10  2  0  0  0  0
  6 11  2  0  0  0  0
  7 24  1  0  0  0  0
  8 16  1  0  0  0  0
  9 12  1  0  0  0  0
  9 13  2  0  0  0  0
  9 21  1  0  0  0  0
 10 23  1  0  0  0  0
 11 14  1  0  0  0  0
 11 24  1  0  0  0  0
 12 15  1  0  0  0  0
 12 17  2  0  0  0  0
 13 18  1  0  0  0  0
 13 22  1  0  0  0  0
 14 17  1  0  0  0  0
 14 18  2  0  0  0  0
 15 19  1  0  0  0  0
 15 20  2  0  0  0  0
 16 19  1  0  0  0  0
  1 25  1  0  0  0  0
  2 26  1  0  0  0  0
  3 27  1  0  0  0  0
  4 28  1  0  0  0  0
  5 29  1  0  0  0  0
  6 30  1  0  0  0  0
  7 31  1  0  0  0  0
 16 32  1  0  0  0  0
 16 33  1  0  0  0  0
 19 34  1  0  0  0  0
 21 35  1  0  0  0  0
 22 36  1  0  0  0  0
M  END
> <Hybrid2>
-4.576577186584473

> <Hybrid2>
-4.576577

$$$$
CHEMBL216874
  -OEChem-02152218473D

 36 38  0     0  0  0  0  0  0999 V2000
    5.1652  -29.4953   -7.5564 C   0  0  0  0  0  0  0  0  0  0  0  0
   13.0621  -26.2292  -12.0599 C   0  0  0  0  0  0  0  0  0  0  0  0
   12.6437  -28.6039  -11.9098 C   0  0  0  0  0  0  0  0  0  0  0  0
   14.3199  -26.4145  -11.4862 C   0  0  0  0  0  0  0  0  0  0  0  0
   13.9016  -28.7893  -11.3362 C   0  0  0  0  0  0  0  0  0  0  0  0
    5.4515  -28.1084   -7.7133 C   0  0  0  0  0  0  0  0  0  0  0  0
    5.9402  -30.2802   -8.3815 C   0  0  0  0  0  0  0  0  0  0  0  0
   12.2240  -27.3239  -12.2717 C   0  0  0  0  0  0  0  0  0  0  0  0
    8.0619  -24.3159   -9.9093 C   0  0  0  0  0  0  0  0  0  0  0  0
   14.7397  -27.6945  -11.1244 C   0  0  0  0  0  0  0  0  0  0  0  0
    6.4348  -27.8861   -8.6524 C   0  0  0  0  0  0  0  0  0  0  0  0
    8.4707  -25.5306  -10.4210 C   0  0  0  0  0  0  0  0  0  0  0  0
    7.0724  -24.3752   -8.9493 C   0  0  0  0  0  0  0  0  0  0  0  0
    7.0014  -26.6428   -9.0901 C   0  0  0  0  0  0  0  0  0  0  0  0
    9.5287  -25.6094  -11.4610 C   0  0  0  0  0  0  0  0  0  0  0  0
   10.8793  -27.1266  -12.8857 C   0  0  0  0  0  0  0  0  0  0  0  0
    7.9601  -26.7176  -10.0328 N   0  0  0  0  0  0  0  0  0  0  0  0
    6.5175  -25.5256   -8.5146 N   0  0  0  0  0  0  0  0  0  0  0  0
    9.8568  -26.8849  -11.8996 N   0  0  0  0  0  0  0  0  0  0  0  0
   10.0605  -24.5750  -11.8555 O   0  0  0  0  0  0  0  0  0  0  0  0
    8.5930  -23.1403  -10.3185 O   0  0  0  0  0  0  0  0  0  0  0  0
    6.6044  -23.2175   -8.3851 O   0  0  0  0  0  0  0  0  0  0  0  0
   15.9486  -27.8729  -10.5759 F   0  0  0  0  0  0  0  0  0  0  0  0
    7.0079  -29.3458   -9.3403 S   0  0  0  0  0  0  0  0  0  0  0  0
    4.4289  -29.8973   -6.8728 H   0  0  0  0  0  0  0  0  0  0  0  0
   12.7435  -25.2279  -12.3379 H   0  0  0  0  0  0  0  0  0  0  0  0
   11.9976  -29.4629  -12.0713 H   0  0  0  0  0  0  0  0  0  0  0  0
   14.9727  -25.5625  -11.3220 H   0  0  0  0  0  0  0  0  0  0  0  0
   14.2286  -29.7856  -11.0539 H   0  0  0  0  0  0  0  0  0  0  0  0
    4.9573  -27.3194   -7.1599 H   0  0  0  0  0  0  0  0  0  0  0  0
    5.9309  -31.3577   -8.4668 H   0  0  0  0  0  0  0  0  0  0  0  0
   10.8807  -26.2713  -13.5760 H   0  0  0  0  0  0  0  0  0  0  0  0
   10.5701  -28.0045  -13.4695 H   0  0  0  0  0  0  0  0  0  0  0  0
    9.4145  -27.6976  -11.4783 H   0  0  0  0  0  0  0  0  0  0  0  0
    9.2745  -23.2884  -10.9972 H   0  0  0  0  0  0  0  0  0  0  0  0
    5.9185  -23.4243   -7.7350 H   0  0  0  0  0  0  0  0  0  0  0  0
  1  6  1  0  0  0  0
  1  7  2  0  0  0  0
  2  4  2  0  0  0  0
  2  8  1  0  0  0  0
  3  5  1  0  0  0  0
  3  8  2  0  0  0  0
  4 10  1  0  0  0  0
  5 10  2  0  0  0  0
  6 11  2  0  0  0  0
  7 24  1  0  0  0  0
  8 16  1  0  0  0  0
  9 12  1  0  0  0  0
  9 13  2  0  0  0  0
  9 21  1  0  0  0  0
 10 23  1  0  0  0  0
 11 14  1  0  0  0  0
 11 24  1  0  0  0  0
 12 15  1  0  0  0  0
 12 17  2  0  0  0  0
 13 18  1  0  0  0  0
 13 22  1  0  0  0  0
 14 17  1  0  0  0  0
 14 18  2  0  0  0  0
 15 19  1  0  0  0  0
 15 20  2  0  0  0  0
 16 19  1  0  0  0  0
  1 25  1  0  0  0  0
  2 26  1  0  0  0  0
  3 27  1  0  0  0  0
  4 28  1  0  0  0  0
  5 29  1  0  0  0  0
  6 30  1  0  0  0  0
  7 31  1  0  0  0  0
 16 32  1  0  0  0  0
 16 33  1  0  0  0  0
 19 34  1  0  0  0  0
 21 35  1  0  0  0  0
 22 36  1  0  0  0  0
M  END
> <Hybrid2>
-4.576577186584473

> <Hybrid2>
-4.524451

$$$$
CHEMBL371007
  -OEChem-02152218473D

 46 49  0     1  0  0  0  0  0999 V2000
    4.9658  -28.0721   -7.9860 C   0  0  0  0  0  0  0  0  0  0  0  0
    5.6343  -27.0410   -8.6290 C   0  0  0  0  0  0  0  0  0  0  0  0
   13.8969  -25.4510  -11.7168 C   0  0  0  0  0  0  0  0  0  0  0  0
   14.0437  -27.8294  -11.3188 C   0  0  0  0  0  0  0  0  0  0  0  0
   15.0285  -25.2489  -10.9268 C   0  0  0  0  0  0  0  0  0  0  0  0
   15.1754  -27.6274  -10.5288 C   0  0  0  0  0  0  0  0  0  0  0  0
    5.5204  -29.3352   -8.0566 C   0  0  0  0  0  0  0  0  0  0  0  0
    6.8269  -27.3058   -9.3163 C   0  0  0  0  0  0  0  0  0  0  0  0
   13.4044  -26.7412  -11.9128 C   0  0  0  0  0  0  0  0  0  0  0  0
    7.3165  -28.6238   -9.3341 C   0  0  0  0  0  0  0  0  0  0  0  0
    8.4992  -28.8644  -10.0201 C   0  0  0  0  0  0  0  0  0  0  0  0
   15.6678  -26.3371  -10.3329 C   0  0  0  0  0  0  0  0  0  0  0  0
    9.1461  -27.8122  -10.6539 C   0  0  0  0  0  0  0  0  0  0  0  0
    7.5507  -26.3158   -9.9854 C   0  0  0  0  0  0  0  0  0  0  0  0
    8.9899  -23.5128   -9.0491 C   0  0  0  0  0  0  0  0  0  0  0  0
    8.4753  -23.4090  -11.4889 C   0  0  0  0  0  0  0  0  0  0  0  0
   10.3884  -28.0253  -11.3813 C   0  0  0  0  0  0  0  0  0  0  0  0
    7.6021  -24.0647   -8.8218 C   0  0  0  0  0  0  0  0  0  0  0  0
    7.0798  -24.8719  -10.0074 C   0  0  1  0  0  0  0  0  0  0  0  0
   12.1868  -26.9595  -12.7637 C   0  0  0  0  0  0  0  0  0  0  0  0
    6.6691  -29.6268   -8.7108 N   0  0  0  0  0  0  0  0  0  0  0  0
    8.7010  -26.5398  -10.6541 N   0  0  0  0  0  0  0  0  0  0  0  0
    9.2693  -23.1721  -10.3668 N   0  0  0  0  0  0  0  0  0  0  0  0
    7.3663  -24.2055  -11.2693 N   0  0  0  0  0  0  0  0  0  0  0  0
   10.9684  -26.9057  -11.9882 N   0  0  0  0  0  0  0  0  0  0  0  0
    9.7716  -23.3189   -8.1198 O   0  0  0  0  0  0  0  0  0  0  0  0
    8.7458  -22.9421  -12.5966 O   0  0  0  0  0  0  0  0  0  0  0  0
   10.8830  -29.1629  -11.4645 O   0  0  0  0  0  0  0  0  0  0  0  0
    9.0195  -30.1234  -10.0698 O   0  0  0  0  0  0  0  0  0  0  0  0
   16.7562  -26.1435   -9.5764 F   0  0  0  0  0  0  0  0  0  0  0  0
    4.0422  -27.8931   -7.4479 H   0  0  0  0  0  0  0  0  0  0  0  0
    5.2109  -26.0411   -8.5839 H   0  0  0  0  0  0  0  0  0  0  0  0
   13.4051  -24.5968  -12.1749 H   0  0  0  0  0  0  0  0  0  0  0  0
   13.6673  -28.8384  -11.4662 H   0  0  0  0  0  0  0  0  0  0  0  0
   15.4124  -24.2446  -10.7747 H   0  0  0  0  0  0  0  0  0  0  0  0
   15.6731  -28.4743  -10.0659 H   0  0  0  0  0  0  0  0  0  0  0  0
    5.0410  -30.1805   -7.5738 H   0  0  0  0  0  0  0  0  0  0  0  0
    7.6321  -24.6780   -7.9018 H   0  0  0  0  0  0  0  0  0  0  0  0
    6.9219  -23.2190   -8.6124 H   0  0  0  0  0  0  0  0  0  0  0  0
    5.9563  -24.9063   -9.9459 H   0  0  0  0  0  0  0  0  0  0  0  0
   12.1217  -26.1970  -13.5474 H   0  0  0  0  0  0  0  0  0  0  0  0
   12.2244  -27.9345  -13.2608 H   0  0  0  0  0  0  0  0  0  0  0  0
   10.1534  -22.6959  -10.5319 H   0  0  0  0  0  0  0  0  0  0  0  0
    6.7017  -24.3354  -12.0462 H   0  0  0  0  0  0  0  0  0  0  0  0
   10.4897  -26.0121  -11.9422 H   0  0  0  0  0  0  0  0  0  0  0  0
    8.4520  -30.7392   -9.5808 H   0  0  0  0  0  0  0  0  0  0  0  0
  1  2  2  0  0  0  0
  1  7  1  0  0  0  0
  2  8  1  0  0  0  0
  3  5  2  0  0  0  0
  3  9  1  0  0  0  0
  4  6  1  0  0  0  0
  4  9  2  0  0  0  0
  5 12  1  0  0  0  0
  6 12  2  0  0  0  0
  7 21  2  0  0  0  0
  8 10  1  0  0  0  0
  8 14  2  0  0  0  0
  9 20  1  0  0  0  0
 10 11  2  0  0  0  0
 10 21  1  0  0  0  0
 11 13  1  0  0  0  0
 11 29  1  0  0  0  0
 12 30  1  0  0  0  0
 13 17  1  0  0  0  0
 13 22  2  0  0  0  0
 14 19  1  0  0  0  0
 14 22  1  0  0  0  0
 15 18  1  0  0  0  0
 15 23  1  0  0  0  0
 15 26  2  0  0  0  0
 16 23  1  0  0  0  0
 16 24  1  0  0  0  0
 16 27  2  0  0  0  0
 17 25  1  0  0  0  0
 17 28  2  0  0  0  0
 18 19  1  0  0  0  0
 19 24  1  0  0  0  0
 20 25  1  0  0  0  0
  1 31  1  0  0  0  0
  2 32  1  0  0  0  0
  3 33  1  0  0  0  0
  4 34  1  0  0  0  0
  5 35  1  0  0  0  0
  6 36  1  0  0  0  0
  7 37  1  0  0  0  0
 18 38  1  0  0  0  0
 18 39  1  0  0  0  0
 19 40  1  0  0  0  0
 20 41  1  0  0  0  0
 20 42  1  0  0  0  0
 23 43  1  0  0  0  0
 24 44  1  0  0  0  0
 25 45  1  0  0  0  0
 29 46  1  0  0  0  0
M  END
> <Hybrid2>
-0.33548176288604736

> <Hybrid2>
-0.335482

$$$$
CHEMBL371007
  -OEChem-02152218473D

 46 49  0     1  0  0  0  0  0999 V2000
   14.8189  -27.6133  -11.7849 C   0  0  0  0  0  0  0  0  0  0  0  0
   13.6306  -27.0482  -12.2231 C   0  0  0  0  0  0  0  0  0  0  0  0
    5.0076  -27.0950   -9.7786 C   0  0  0  0  0  0  0  0  0  0  0  0
    6.0102  -28.0826   -7.8148 C   0  0  0  0  0  0  0  0  0  0  0  0
    4.1443  -28.1852   -9.8862 C   0  0  0  0  0  0  0  0  0  0  0  0
    5.1468  -29.1729   -7.9224 C   0  0  0  0  0  0  0  0  0  0  0  0
   14.8669  -28.0703  -10.4822 C   0  0  0  0  0  0  0  0  0  0  0  0
   12.5376  -26.9596  -11.3501 C   0  0  0  0  0  0  0  0  0  0  0  0
    5.9406  -27.0437   -8.7429 C   0  0  0  0  0  0  0  0  0  0  0  0
   12.6790  -27.4519  -10.0406 C   0  0  0  0  0  0  0  0  0  0  0  0
   11.5845  -27.3549   -9.1922 C   0  0  0  0  0  0  0  0  0  0  0  0
    4.2139  -29.2242   -8.9581 C   0  0  0  0  0  0  0  0  0  0  0  0
   10.4080  -26.7845   -9.6593 C   0  0  0  0  0  0  0  0  0  0  0  0
   11.3126  -26.4025  -11.7251 C   0  0  0  0  0  0  0  0  0  0  0  0
    9.0973  -27.1108  -14.0479 C   0  0  0  0  0  0  0  0  0  0  0  0
    8.8720  -24.7149  -13.3865 C   0  0  0  0  0  0  0  0  0  0  0  0
    9.2395  -26.6668   -8.8000 C   0  0  0  0  0  0  0  0  0  0  0  0
   10.5939  -26.9126  -14.1016 C   0  0  0  0  0  0  0  0  0  0  0  0
   11.0904  -25.8515  -13.1230 C   0  0  1  0  0  0  0  0  0  0  0  0
    6.8697  -25.8701   -8.6260 C   0  0  0  0  0  0  0  0  0  0  0  0
   13.8319  -28.0009   -9.6125 N   0  0  0  0  0  0  0  0  0  0  0  0
   10.2433  -26.3043  -10.9081 N   0  0  0  0  0  0  0  0  0  0  0  0
    8.3707  -25.9624  -13.7582 N   0  0  0  0  0  0  0  0  0  0  0  0
   10.2313  -24.6765  -13.1349 N   0  0  0  0  0  0  0  0  0  0  0  0
    8.0988  -26.0783   -9.3573 N   0  0  0  0  0  0  0  0  0  0  0  0
    8.5758  -28.1923  -14.3137 O   0  0  0  0  0  0  0  0  0  0  0  0
    8.1525  -23.7195  -13.2884 O   0  0  0  0  0  0  0  0  0  0  0  0
    9.2819  -27.0591   -7.6210 O   0  0  0  0  0  0  0  0  0  0  0  0
   11.6656  -27.8163   -7.9120 O   0  0  0  0  0  0  0  0  0  0  0  0
    3.3830  -30.2700   -9.0598 F   0  0  0  0  0  0  0  0  0  0  0  0
   15.6781  -27.6934  -12.4406 H   0  0  0  0  0  0  0  0  0  0  0  0
   13.5763  -26.6828  -13.2452 H   0  0  0  0  0  0  0  0  0  0  0  0
    4.9465  -26.2906  -10.5069 H   0  0  0  0  0  0  0  0  0  0  0  0
    6.7337  -28.0512   -7.0043 H   0  0  0  0  0  0  0  0  0  0  0  0
    3.4175  -28.2250  -10.6920 H   0  0  0  0  0  0  0  0  0  0  0  0
    5.2010  -29.9822   -7.2003 H   0  0  0  0  0  0  0  0  0  0  0  0
   15.7703  -28.5206  -10.0841 H   0  0  0  0  0  0  0  0  0  0  0  0
   11.0688  -27.8921  -13.9050 H   0  0  0  0  0  0  0  0  0  0  0  0
   10.8705  -26.6321  -15.1343 H   0  0  0  0  0  0  0  0  0  0  0  0
   12.0925  -25.4819  -13.4785 H   0  0  0  0  0  0  0  0  0  0  0  0
    6.3956  -24.9622   -9.0147 H   0  0  0  0  0  0  0  0  0  0  0  0
    7.1309  -25.6783   -7.5800 H   0  0  0  0  0  0  0  0  0  0  0  0
    7.3582  -26.0404  -13.8247 H   0  0  0  0  0  0  0  0  0  0  0  0
   10.6629  -23.7603  -12.9442 H   0  0  0  0  0  0  0  0  0  0  0  0
    8.1385  -25.7182  -10.3052 H   0  0  0  0  0  0  0  0  0  0  0  0
   12.5477  -28.1825   -7.7440 H   0  0  0  0  0  0  0  0  0  0  0  0
  1  2  2  0  0  0  0
  1  7  1  0  0  0  0
  2  8  1  0  0  0  0
  3  5  2  0  0  0  0
  3  9  1  0  0  0  0
  4  6  1  0  0  0  0
  4  9  2  0  0  0  0
  5 12  1  0  0  0  0
  6 12  2  0  0  0  0
  7 21  2  0  0  0  0
  8 10  1  0  0  0  0
  8 14  2  0  0  0  0
  9 20  1  0  0  0  0
 10 11  2  0  0  0  0
 10 21  1  0  0  0  0
 11 13  1  0  0  0  0
 11 29  1  0  0  0  0
 12 30  1  0  0  0  0
 13 17  1  0  0  0  0
 13 22  2  0  0  0  0
 14 19  1  0  0  0  0
 14 22  1  0  0  0  0
 15 18  1  0  0  0  0
 15 23  1  0  0  0  0
 15 26  2  0  0  0  0
 16 23  1  0  0  0  0
 16 24  1  0  0  0  0
 16 27  2  0  0  0  0
 17 25  1  0  0  0  0
 17 28  2  0  0  0  0
 18 19  1  0  0  0  0
 19 24  1  0  0  0  0
 20 25  1  0  0  0  0
  1 31  1  0  0  0  0
  2 32  1  0  0  0  0
  3 33  1  0  0  0  0
  4 34  1  0  0  0  0
  5 35  1  0  0  0  0
  6 36  1  0  0  0  0
  7 37  1  0  0  0  0
 18 38  1  0  0  0  0
 18 39  1  0  0  0  0
 19 40  1  0  0  0  0
 20 41  1  0  0  0  0
 20 42  1  0  0  0  0
 23 43  1  0  0  0  0
 24 44  1  0  0  0  0
 25 45  1  0  0  0  0
 29 46  1  0  0  0  0
M  END
> <Hybrid2>
-0.33548176288604736

> <Hybrid2>
-0.247762

$$$$
CHEMBL193759
  -OEChem-02152218473D

 35 36  0     0  0  0  0  0  0999 V2000
    4.0541  -30.4667   -9.4772 C   0  0  0  0  0  0  0  0  0  0  0  0
    3.9245  -29.1913   -8.9276 C   0  0  0  0  0  0  0  0  0  0  0  0
    5.3089  -31.0719   -9.5468 C   0  0  0  0  0  0  0  0  0  0  0  0
    7.9216  -25.1527   -9.8962 C   0  0  0  0  0  0  0  0  0  0  0  0
    9.0504  -25.4221  -10.6700 C   0  0  0  0  0  0  0  0  0  0  0  0
    5.0496  -28.5210   -8.4476 C   0  0  0  0  0  0  0  0  0  0  0  0
    6.4341  -30.4017   -9.0668 C   0  0  0  0  0  0  0  0  0  0  0  0
    7.4252  -26.1227   -9.0253 C   0  0  0  0  0  0  0  0  0  0  0  0
    9.1865  -27.6316   -9.7022 C   0  0  0  0  0  0  0  0  0  0  0  0
    9.6828  -26.6615  -10.5730 C   0  0  0  0  0  0  0  0  0  0  0  0
    6.3045  -29.1262   -8.5172 C   0  0  0  0  0  0  0  0  0  0  0  0
    8.0577  -27.3621   -8.9283 C   0  0  0  0  0  0  0  0  0  0  0  0
   12.0597  -27.2542  -10.8303 C   0  0  0  0  0  0  0  0  0  0  0  0
   10.8596  -26.9428  -11.3806 C   0  0  0  0  0  0  0  0  0  0  0  0
   13.2858  -27.5411  -11.6131 C   0  0  0  0  0  0  0  0  0  0  0  0
   14.5130  -27.8648  -10.8191 C   0  0  0  0  0  0  0  0  0  0  0  0
    7.5275  -28.3984   -7.9961 C   0  0  0  0  0  0  0  0  0  0  0  0
   13.3874  -27.5130  -12.8279 O   0  0  0  0  0  0  0  0  0  0  0  0
   14.5100  -27.8906   -9.6055 O   0  0  0  0  0  0  0  0  0  0  0  0
   10.6576  -26.8465  -12.7507 O   0  0  0  0  0  0  0  0  0  0  0  0
   15.5431  -28.0723  -11.6502 O   0  0  0  0  0  0  0  0  0  0  0  0
    3.1777  -30.9890   -9.8496 H   0  0  0  0  0  0  0  0  0  0  0  0
    2.9473  -28.7203   -8.8723 H   0  0  0  0  0  0  0  0  0  0  0  0
    5.4101  -32.0653   -9.9736 H   0  0  0  0  0  0  0  0  0  0  0  0
    7.4295  -24.1873   -9.9716 H   0  0  0  0  0  0  0  0  0  0  0  0
    9.4251  -24.6558  -11.3444 H   0  0  0  0  0  0  0  0  0  0  0  0
    4.9391  -27.5274   -8.0212 H   0  0  0  0  0  0  0  0  0  0  0  0
    7.4078  -30.8810   -9.1253 H   0  0  0  0  0  0  0  0  0  0  0  0
    6.5456  -25.9042   -8.4256 H   0  0  0  0  0  0  0  0  0  0  0  0
    9.6750  -28.6006   -9.6221 H   0  0  0  0  0  0  0  0  0  0  0  0
   12.1702  -27.2971   -9.7501 H   0  0  0  0  0  0  0  0  0  0  0  0
    7.2852  -27.9501   -7.0164 H   0  0  0  0  0  0  0  0  0  0  0  0
    8.3097  -29.1404   -7.7574 H   0  0  0  0  0  0  0  0  0  0  0  0
   11.4775  -27.0458  -13.2082 H   0  0  0  0  0  0  0  0  0  0  0  0
   16.3759  -28.2651  -11.1690 H   0  0  0  0  0  0  0  0  0  0  0  0
  1  2  1  0  0  0  0
  1  3  2  0  0  0  0
  2  6  2  0  0  0  0
  3  7  1  0  0  0  0
  4  5  2  0  0  0  0
  4  8  1  0  0  0  0
  5 10  1  0  0  0  0
  6 11  1  0  0  0  0
  7 11  2  0  0  0  0
  8 12  2  0  0  0  0
  9 10  2  0  0  0  0
  9 12  1  0  0  0  0
 10 14  1  0  0  0  0
 11 17  1  0  0  0  0
 12 17  1  0  0  0  0
 13 14  2  0  0  0  0
 13 15  1  0  0  0  0
 14 20  1  0  0  0  0
 15 16  1  0  0  0  0
 15 18  2  0  0  0  0
 16 19  2  0  0  0  0
 16 21  1  0  0  0  0
  1 22  1  0  0  0  0
  2 23  1  0  0  0  0
  3 24  1  0  0  0  0
  4 25  1  0  0  0  0
  5 26  1  0  0  0  0
  6 27  1  0  0  0  0
  7 28  1  0  0  0  0
  8 29  1  0  0  0  0
  9 30  1  0  0  0  0
 13 31  1  0  0  0  0
 17 32  1  0  0  0  0
 17 33  1  0  0  0  0
 20 34  1  0  0  0  0
 21 35  1  0  0  0  0
M  END
> <Hybrid2>
-6.008154392242432

> <Hybrid2>
-6.008154

$$$$
CHEMBL193759
  -OEChem-02152218473D

 35 36  0     0  0  0  0  0  0999 V2000
    3.8999  -29.8071  -10.3614 C   0  0  0  0  0  0  0  0  0  0  0  0
    3.8120  -28.5068   -9.8643 C   0  0  0  0  0  0  0  0  0  0  0  0
    5.1013  -30.5096  -10.2685 C   0  0  0  0  0  0  0  0  0  0  0  0
    8.2070  -24.8262  -10.4664 C   0  0  0  0  0  0  0  0  0  0  0  0
    9.3911  -25.2093  -11.0962 C   0  0  0  0  0  0  0  0  0  0  0  0
    4.9257  -27.9090   -9.2743 C   0  0  0  0  0  0  0  0  0  0  0  0
    6.2150  -29.9119   -9.6785 C   0  0  0  0  0  0  0  0  0  0  0  0
    7.5378  -25.7235   -9.6340 C   0  0  0  0  0  0  0  0  0  0  0  0
    9.2369  -27.3871  -10.0615 C   0  0  0  0  0  0  0  0  0  0  0  0
    9.9061  -26.4898  -10.8938 C   0  0  0  0  0  0  0  0  0  0  0  0
    6.1272  -28.6115   -9.1814 C   0  0  0  0  0  0  0  0  0  0  0  0
    8.0527  -27.0040   -9.4316 C   0  0  0  0  0  0  0  0  0  0  0  0
   12.2410  -27.2732  -10.8569 C   0  0  0  0  0  0  0  0  0  0  0  0
   11.1406  -26.8896  -11.5512 C   0  0  0  0  0  0  0  0  0  0  0  0
   13.5211  -27.6816  -11.4838 C   0  0  0  0  0  0  0  0  0  0  0  0
   14.6196  -28.0710  -10.5441 C   0  0  0  0  0  0  0  0  0  0  0  0
    7.3376  -27.9626   -8.5407 C   0  0  0  0  0  0  0  0  0  0  0  0
   13.7625  -27.7044  -12.6788 O   0  0  0  0  0  0  0  0  0  0  0  0
   14.4762  -28.0535   -9.3388 O   0  0  0  0  0  0  0  0  0  0  0  0
   11.1046  -26.8265  -12.9375 O   0  0  0  0  0  0  0  0  0  0  0  0
   15.7175  -28.3867  -11.2438 O   0  0  0  0  0  0  0  0  0  0  0  0
    3.0323  -30.2729  -10.8196 H   0  0  0  0  0  0  0  0  0  0  0  0
    2.8763  -27.9600   -9.9355 H   0  0  0  0  0  0  0  0  0  0  0  0
    5.1698  -31.5224  -10.6545 H   0  0  0  0  0  0  0  0  0  0  0  0
    7.8065  -23.8290  -10.6238 H   0  0  0  0  0  0  0  0  0  0  0  0
    9.9010  -24.4987  -11.7422 H   0  0  0  0  0  0  0  0  0  0  0  0
    4.8480  -26.8954   -8.8898 H   0  0  0  0  0  0  0  0  0  0  0  0
    7.1470  -30.4668   -9.6106 H   0  0  0  0  0  0  0  0  0  0  0  0
    6.6161  -25.4166   -9.1469 H   0  0  0  0  0  0  0  0  0  0  0  0
    9.6331  -28.3876   -9.8997 H   0  0  0  0  0  0  0  0  0  0  0  0
   12.2238  -27.2863   -9.7704 H   0  0  0  0  0  0  0  0  0  0  0  0
    7.0224  -27.4625   -7.6080 H   0  0  0  0  0  0  0  0  0  0  0  0
    8.0249  -28.7539   -8.1931 H   0  0  0  0  0  0  0  0  0  0  0  0
   11.9524  -27.1047  -13.2910 H   0  0  0  0  0  0  0  0  0  0  0  0
   16.4717  -28.6262  -10.6641 H   0  0  0  0  0  0  0  0  0  0  0  0
  1  2  1  0  0  0  0
  1  3  2  0  0  0  0
  2  6  2  0  0  0  0
  3  7  1  0  0  0  0
  4  5  2  0  0  0  0
  4  8  1  0  0  0  0
  5 10  1  0  0  0  0
  6 11  1  0  0  0  0
  7 11  2  0  0  0  0
  8 12  2  0  0  0  0
  9 10  2  0  0  0  0
  9 12  1  0  0  0  0
 10 14  1  0  0  0  0
 11 17  1  0  0  0  0
 12 17  1  0  0  0  0
 13 14  2  0  0  0  0
 13 15  1  0  0  0  0
 14 20  1  0  0  0  0
 15 16  1  0  0  0  0
 15 18  2  0  0  0  0
 16 19  2  0  0  0  0
 16 21  1  0  0  0  0
  1 22  1  0  0  0  0
  2 23  1  0  0  0  0
  3 24  1  0  0  0  0
  4 25  1  0  0  0  0
  5 26  1  0  0  0  0
  6 27  1  0  0  0  0
  7 28  1  0  0  0  0
  8 29  1  0  0  0  0
  9 30  1  0  0  0  0
 13 31  1  0  0  0  0
 17 32  1  0  0  0  0
 17 33  1  0  0  0  0
 20 34  1  0  0  0  0
 21 35  1  0  0  0  0
M  END
> <Hybrid2>
-6.008154392242432

> <Hybrid2>
-5.810031

$$$$
CHEMBL379658
  -OEChem-02152218473D

 52 55  0     0  0  0  0  0  0999 V2000
    9.2373  -21.7800  -11.0664 C   0  0  0  0  0  0  0  0  0  0  0  0
    9.5087  -23.1290  -10.8929 C   0  0  0  0  0  0  0  0  0  0  0  0
    3.1648  -29.0341   -9.2462 C   0  0  0  0  0  0  0  0  0  0  0  0
    4.9115  -30.6632   -9.6098 C   0  0  0  0  0  0  0  0  0  0  0  0
    2.3848  -29.6521  -10.2236 C   0  0  0  0  0  0  0  0  0  0  0  0
    4.1315  -31.2813  -10.5872 C   0  0  0  0  0  0  0  0  0  0  0  0
    8.0068  -21.3162  -10.6436 C   0  0  0  0  0  0  0  0  0  0  0  0
    8.5470  -23.9633  -10.3064 C   0  0  0  0  0  0  0  0  0  0  0  0
    4.4282  -29.5396   -8.9394 C   0  0  0  0  0  0  0  0  0  0  0  0
    7.3214  -23.4020   -9.9063 C   0  0  0  0  0  0  0  0  0  0  0  0
    6.3830  -24.2455   -9.3273 C   0  0  0  0  0  0  0  0  0  0  0  0
    2.8682  -30.7758  -10.8941 C   0  0  0  0  0  0  0  0  0  0  0  0
    6.6832  -25.5914   -9.1664 C   0  0  0  0  0  0  0  0  0  0  0  0
    8.7537  -25.3297  -10.1022 C   0  0  0  0  0  0  0  0  0  0  0  0
   10.4421  -25.9063  -11.8348 C   0  0  0  0  0  0  0  0  0  0  0  0
   11.7320  -26.6253  -12.1557 C   0  0  0  0  0  0  0  0  0  0  0  0
    5.7249  -26.5060   -8.5631 C   0  0  0  0  0  0  0  0  0  0  0  0
   10.7750  -26.6644   -9.5044 C   0  0  0  0  0  0  0  0  0  0  0  0
   12.2605  -26.5023   -9.7490 C   0  0  0  0  0  0  0  0  0  0  0  0
   14.9310  -26.3996  -11.5403 C   0  0  0  0  0  0  0  0  0  0  0  0
    5.2679  -28.8753   -7.8869 C   0  0  0  0  0  0  0  0  0  0  0  0
   13.9073  -27.4640  -11.3357 C   0  0  0  0  0  0  0  0  0  0  0  0
    7.0554  -22.0926  -10.0740 N   0  0  0  0  0  0  0  0  0  0  0  0
    7.8483  -26.1572   -9.5400 N   0  0  0  0  0  0  0  0  0  0  0  0
   10.0030  -25.9282  -10.5043 N   0  0  0  0  0  0  0  0  0  0  0  0
   12.5921  -26.8892  -11.1034 N   0  0  0  0  0  0  0  0  0  0  0  0
    6.1150  -27.8442   -8.4421 N   0  0  0  0  0  0  0  0  0  0  0  0
    9.8808  -25.4080  -12.8054 O   0  0  0  0  0  0  0  0  0  0  0  0
   11.9217  -26.9073  -13.3343 O   0  0  0  0  0  0  0  0  0  0  0  0
    4.6085  -26.0984   -8.1984 O   0  0  0  0  0  0  0  0  0  0  0  0
    5.1778  -23.7546   -8.9215 O   0  0  0  0  0  0  0  0  0  0  0  0
    2.1181  -31.3710  -11.8308 F   0  0  0  0  0  0  0  0  0  0  0  0
    9.9645  -21.1148  -11.5168 H   0  0  0  0  0  0  0  0  0  0  0  0
   10.4734  -23.5068  -11.2210 H   0  0  0  0  0  0  0  0  0  0  0  0
    2.7800  -28.1587   -8.7297 H   0  0  0  0  0  0  0  0  0  0  0  0
    5.8945  -31.0643   -9.3772 H   0  0  0  0  0  0  0  0  0  0  0  0
    1.4011  -29.2592  -10.4621 H   0  0  0  0  0  0  0  0  0  0  0  0
    4.5076  -32.1558  -11.1097 H   0  0  0  0  0  0  0  0  0  0  0  0
    7.7401  -20.2700  -10.7536 H   0  0  0  0  0  0  0  0  0  0  0  0
   10.5037  -27.7256   -9.5446 H   0  0  0  0  0  0  0  0  0  0  0  0
   10.4989  -26.2753   -8.5168 H   0  0  0  0  0  0  0  0  0  0  0  0
   12.5471  -25.4569   -9.5902 H   0  0  0  0  0  0  0  0  0  0  0  0
   12.8462  -27.1272   -9.0651 H   0  0  0  0  0  0  0  0  0  0  0  0
   14.9768  -25.7579  -10.6481 H   0  0  0  0  0  0  0  0  0  0  0  0
   15.9139  -26.8639  -11.7087 H   0  0  0  0  0  0  0  0  0  0  0  0
   14.6578  -25.7917  -12.4154 H   0  0  0  0  0  0  0  0  0  0  0  0
    4.6342  -28.4150   -7.1210 H   0  0  0  0  0  0  0  0  0  0  0  0
    5.9126  -29.6022   -7.3818 H   0  0  0  0  0  0  0  0  0  0  0  0
   13.8677  -28.1010  -12.2316 H   0  0  0  0  0  0  0  0  0  0  0  0
   14.1918  -28.0731  -10.4650 H   0  0  0  0  0  0  0  0  0  0  0  0
    7.0133  -28.1353   -8.8136 H   0  0  0  0  0  0  0  0  0  0  0  0
    5.1258  -22.8035   -9.1036 H   0  0  0  0  0  0  0  0  0  0  0  0
  1  2  2  0  0  0  0
  1  7  1  0  0  0  0
  2  8  1  0  0  0  0
  3  5  2  0  0  0  0
  3  9  1  0  0  0  0
  4  6  1  0  0  0  0
  4  9  2  0  0  0  0
  5 12  1  0  0  0  0
  6 12  2  0  0  0  0
  7 23  2  0  0  0  0
  8 10  1  0  0  0  0
  8 14  2  0  0  0  0
  9 21  1  0  0  0  0
 10 11  2  0  0  0  0
 10 23  1  0  0  0  0
 11 13  1  0  0  0  0
 11 31  1  0  0  0  0
 12 32  1  0  0  0  0
 13 17  1  0  0  0  0
 13 24  2  0  0  0  0
 14 24  1  0  0  0  0
 14 25  1  0  0  0  0
 15 16  1  0  0  0  0
 15 25  1  0  0  0  0
 15 28  2  0  0  0  0
 16 26  1  0  0  0  0
 16 29  2  0  0  0  0
 17 27  1  0  0  0  0
 17 30  2  0  0  0  0
 18 19  1  0  0  0  0
 18 25  1  0  0  0  0
 19 26  1  0  0  0  0
 20 22  1  0  0  0  0
 21 27  1  0  0  0  0
 22 26  1  0  0  0  0
  1 33  1  0  0  0  0
  2 34  1  0  0  0  0
  3 35  1  0  0  0  0
  4 36  1  0  0  0  0
  5 37  1  0  0  0  0
  6 38  1  0  0  0  0
  7 39  1  0  0  0  0
 18 40  1  0  0  0  0
 18 41  1  0  0  0  0
 19 42  1  0  0  0  0
 19 43  1  0  0  0  0
 20 44  1  0  0  0  0
 20 45  1  0  0  0  0
 20 46  1  0  0  0  0
 21 47  1  0  0  0  0
 21 48  1  0  0  0  0
 22 49  1  0  0  0  0
 22 50  1  0  0  0  0
 27 51  1  0  0  0  0
 31 52  1  0  0  0  0
M  END
> <Hybrid2>
-3.3154826164245605

> <Hybrid2>
-3.315483

$$$$
CHEMBL379658
  -OEChem-02152218473D

 52 55  0     0  0  0  0  0  0999 V2000
    7.6269  -30.3550  -10.3107 C   0  0  0  0  0  0  0  0  0  0  0  0
    8.4325  -29.2267  -10.3504 C   0  0  0  0  0  0  0  0  0  0  0  0
    8.3906  -20.2516   -9.8564 C   0  0  0  0  0  0  0  0  0  0  0  0
    6.0821  -20.6265  -10.4624 C   0  0  0  0  0  0  0  0  0  0  0  0
    8.5259  -19.3620  -10.9222 C   0  0  0  0  0  0  0  0  0  0  0  0
    6.2174  -19.7369  -11.5282 C   0  0  0  0  0  0  0  0  0  0  0  0
    6.3272  -30.1969   -9.8705 C   0  0  0  0  0  0  0  0  0  0  0  0
    7.9149  -27.9867   -9.9512 C   0  0  0  0  0  0  0  0  0  0  0  0
    7.1687  -20.8839   -9.6266 C   0  0  0  0  0  0  0  0  0  0  0  0
    6.5790  -27.9218   -9.5175 C   0  0  0  0  0  0  0  0  0  0  0  0
    6.0859  -26.6842   -9.1270 C   0  0  0  0  0  0  0  0  0  0  0  0
    7.4393  -19.1046  -11.7581 C   0  0  0  0  0  0  0  0  0  0  0  0
    6.9160  -25.5725   -9.1778 C   0  0  0  0  0  0  0  0  0  0  0  0
    8.6699  -26.8114   -9.9655 C   0  0  0  0  0  0  0  0  0  0  0  0
   10.3959  -27.2747  -11.6951 C   0  0  0  0  0  0  0  0  0  0  0  0
   11.8572  -27.2086  -12.0747 C   0  0  0  0  0  0  0  0  0  0  0  0
    6.4344  -24.2587   -8.7771 C   0  0  0  0  0  0  0  0  0  0  0  0
   11.0772  -26.3413   -9.5086 C   0  0  0  0  0  0  0  0  0  0  0  0
   12.3580  -27.1345   -9.6604 C   0  0  0  0  0  0  0  0  0  0  0  0
   14.7013  -28.6123  -11.2969 C   0  0  0  0  0  0  0  0  0  0  0  0
    7.0221  -21.8410   -8.4791 C   0  0  0  0  0  0  0  0  0  0  0  0
   14.2080  -27.2055  -11.3117 C   0  0  0  0  0  0  0  0  0  0  0  0
    5.7947  -29.0159   -9.4778 N   0  0  0  0  0  0  0  0  0  0  0  0
    8.1996  -25.6042   -9.5885 N   0  0  0  0  0  0  0  0  0  0  0  0
   10.0427  -26.8529  -10.4064 N   0  0  0  0  0  0  0  0  0  0  0  0
   12.7799  -27.1475  -11.0444 N   0  0  0  0  0  0  0  0  0  0  0  0
    7.3422  -23.1974   -8.8619 N   0  0  0  0  0  0  0  0  0  0  0  0
    9.6525  -27.6559  -12.5937 O   0  0  0  0  0  0  0  0  0  0  0  0
   12.1115  -27.2283  -13.2746 O   0  0  0  0  0  0  0  0  0  0  0  0
    5.2717  -24.1136   -8.3616 O   0  0  0  0  0  0  0  0  0  0  0  0
    4.7979  -26.5638   -8.6972 O   0  0  0  0  0  0  0  0  0  0  0  0
    7.5684  -18.2482  -12.7800 F   0  0  0  0  0  0  0  0  0  0  0  0
    8.0037  -31.3245  -10.6144 H   0  0  0  0  0  0  0  0  0  0  0  0
    9.4572  -29.3372  -10.6950 H   0  0  0  0  0  0  0  0  0  0  0  0
    9.2431  -20.4463   -9.2110 H   0  0  0  0  0  0  0  0  0  0  0  0
    5.1261  -21.1143  -10.2908 H   0  0  0  0  0  0  0  0  0  0  0  0
    9.4768  -18.8692  -11.1009 H   0  0  0  0  0  0  0  0  0  0  0  0
    5.3718  -19.5366  -12.1794 H   0  0  0  0  0  0  0  0  0  0  0  0
    5.6515  -31.0445   -9.8191 H   0  0  0  0  0  0  0  0  0  0  0  0
   10.7218  -26.4007   -8.4734 H   0  0  0  0  0  0  0  0  0  0  0  0
   11.2418  -25.2857   -9.7564 H   0  0  0  0  0  0  0  0  0  0  0  0
   13.1446  -26.6832   -9.0458 H   0  0  0  0  0  0  0  0  0  0  0  0
   12.2226  -28.1731   -9.3376 H   0  0  0  0  0  0  0  0  0  0  0  0
   14.1726  -29.1949  -12.0657 H   0  0  0  0  0  0  0  0  0  0  0  0
   15.7812  -28.6243  -11.5060 H   0  0  0  0  0  0  0  0  0  0  0  0
   14.5144  -29.0559  -10.3078 H   0  0  0  0  0  0  0  0  0  0  0  0
    7.6845  -21.5583   -7.6536 H   0  0  0  0  0  0  0  0  0  0  0  0
    5.9982  -21.8354   -8.0910 H   0  0  0  0  0  0  0  0  0  0  0  0
   14.7412  -26.6300  -10.5407 H   0  0  0  0  0  0  0  0  0  0  0  0
   14.4065  -26.7658  -12.3003 H   0  0  0  0  0  0  0  0  0  0  0  0
    8.2979  -23.3829   -9.1480 H   0  0  0  0  0  0  0  0  0  0  0  0
    4.3555  -27.4264   -8.7210 H   0  0  0  0  0  0  0  0  0  0  0  0
  1  2  2  0  0  0  0
  1  7  1  0  0  0  0
  2  8  1  0  0  0  0
  3  5  2  0  0  0  0
  3  9  1  0  0  0  0
  4  6  1  0  0  0  0
  4  9  2  0  0  0  0
  5 12  1  0  0  0  0
  6 12  2  0  0  0  0
  7 23  2  0  0  0  0
  8 10  1  0  0  0  0
  8 14  2  0  0  0  0
  9 21  1  0  0  0  0
 10 11  2  0  0  0  0
 10 23  1  0  0  0  0
 11 13  1  0  0  0  0
 11 31  1  0  0  0  0
 12 32  1  0  0  0  0
 13 17  1  0  0  0  0
 13 24  2  0  0  0  0
 14 24  1  0  0  0  0
 14 25  1  0  0  0  0
 15 16  1  0  0  0  0
 15 25  1  0  0  0  0
 15 28  2  0  0  0  0
 16 26  1  0  0  0  0
 16 29  2  0  0  0  0
 17 27  1  0  0  0  0
 17 30  2  0  0  0  0
 18 19  1  0  0  0  0
 18 25  1  0  0  0  0
 19 26  1  0  0  0  0
 20 22  1  0  0  0  0
 21 27  1  0  0  0  0
 22 26  1  0  0  0  0
  1 33  1  0  0  0  0
  2 34  1  0  0  0  0
  3 35  1  0  0  0  0
  4 36  1  0  0  0  0
  5 37  1  0  0  0  0
  6 38  1  0  0  0  0
  7 39  1  0  0  0  0
 18 40  1  0  0  0  0
 18 41  1  0  0  0  0
 19 42  1  0  0  0  0
 19 43  1  0  0  0  0
 20 44  1  0  0  0  0
 20 45  1  0  0  0  0
 20 46  1  0  0  0  0
 21 47  1  0  0  0  0
 21 48  1  0  0  0  0
 22 49  1  0  0  0  0
 22 50  1  0  0  0  0
 27 51  1  0  0  0  0
 31 52  1  0  0  0  0
M  END
> <Hybrid2>
-3.3154826164245605

> <Hybrid2>
-3.127628

$$$$
CHEMBL377501
  -OEChem-02152218473D

 51 53  0     0  0  0  0  0  0999 V2000
    9.6403  -25.3691  -10.8565 C   0  0  0  0  0  0  0  0  0  0  0  0
    5.6789  -23.2304  -11.1502 C   0  0  0  0  0  0  0  0  0  0  0  0
    4.2091  -25.1414  -10.9919 C   0  0  0  0  0  0  0  0  0  0  0  0
    8.3848  -25.1444  -10.2824 C   0  0  0  0  0  0  0  0  0  0  0  0
    5.1430  -22.9218  -12.4004 C   0  0  0  0  0  0  0  0  0  0  0  0
    3.6732  -24.8327  -12.2421 C   0  0  0  0  0  0  0  0  0  0  0  0
    9.5201  -27.6912  -10.2340 C   0  0  0  0  0  0  0  0  0  0  0  0
    8.2621  -27.4661   -9.6587 C   0  0  0  0  0  0  0  0  0  0  0  0
   10.2062  -26.6392  -10.8323 C   0  0  0  0  0  0  0  0  0  0  0  0
    5.2120  -24.3403  -10.4459 C   0  0  0  0  0  0  0  0  0  0  0  0
    7.6634  -26.1845   -9.6695 C   0  0  0  0  0  0  0  0  0  0  0  0
    4.1401  -23.7229  -12.9464 C   0  0  0  0  0  0  0  0  0  0  0  0
    5.7538  -27.0830   -8.4949 C   0  0  0  0  0  0  0  0  0  0  0  0
    7.5521  -28.6099   -9.0263 C   0  0  0  0  0  0  0  0  0  0  0  0
    6.2254  -28.3309   -8.4285 C   0  0  0  0  0  0  0  0  0  0  0  0
   12.5698  -27.3220  -10.7143 C   0  0  0  0  0  0  0  0  0  0  0  0
    4.2630  -29.7527   -8.2300 C   0  0  0  0  0  0  0  0  0  0  0  0
   11.5121  -26.8660  -11.4310 C   0  0  0  0  0  0  0  0  0  0  0  0
    5.4801  -29.3903   -7.7980 C   0  0  0  0  0  0  0  0  0  0  0  0
   13.9193  -27.5609  -11.2805 C   0  0  0  0  0  0  0  0  0  0  0  0
    3.4793  -30.8403   -7.5962 C   0  0  0  0  0  0  0  0  0  0  0  0
   14.9543  -28.0662  -10.3242 C   0  0  0  0  0  0  0  0  0  0  0  0
    2.1382  -31.1193   -8.2005 C   0  0  0  0  0  0  0  0  0  0  0  0
    5.7879  -24.6726   -9.0998 C   0  0  0  0  0  0  0  0  0  0  0  0
    6.3915  -26.0026   -9.0767 N   0  0  0  0  0  0  0  0  0  0  0  0
    8.0515  -29.7285   -9.0070 O   0  0  0  0  0  0  0  0  0  0  0  0
   14.2618  -27.3615  -12.4336 O   0  0  0  0  0  0  0  0  0  0  0  0
    3.8323  -31.5349   -6.6582 O   0  0  0  0  0  0  0  0  0  0  0  0
   14.7087  -28.2687   -9.1528 O   0  0  0  0  0  0  0  0  0  0  0  0
    1.7150  -30.4959   -9.1522 O   0  0  0  0  0  0  0  0  0  0  0  0
   11.5903  -26.5594  -12.7829 O   0  0  0  0  0  0  0  0  0  0  0  0
    6.0966  -30.0034   -6.7262 O   0  0  0  0  0  0  0  0  0  0  0  0
   16.1235  -28.2083  -10.9627 O   0  0  0  0  0  0  0  0  0  0  0  0
    1.5576  -32.1377   -7.5520 O   0  0  0  0  0  0  0  0  0  0  0  0
    3.6234  -23.4250  -14.1458 F   0  0  0  0  0  0  0  0  0  0  0  0
   10.1632  -24.5356  -11.3202 H   0  0  0  0  0  0  0  0  0  0  0  0
    6.4605  -22.6008  -10.7333 H   0  0  0  0  0  0  0  0  0  0  0  0
    3.8389  -26.0080  -10.4503 H   0  0  0  0  0  0  0  0  0  0  0  0
    7.9897  -24.1330  -10.3298 H   0  0  0  0  0  0  0  0  0  0  0  0
    5.5058  -22.0575  -12.9484 H   0  0  0  0  0  0  0  0  0  0  0  0
    2.8927  -25.4564  -12.6677 H   0  0  0  0  0  0  0  0  0  0  0  0
    9.9667  -28.6831  -10.2171 H   0  0  0  0  0  0  0  0  0  0  0  0
    4.7866  -26.8274   -8.0724 H   0  0  0  0  0  0  0  0  0  0  0  0
   12.4615  -27.5284   -9.6529 H   0  0  0  0  0  0  0  0  0  0  0  0
    3.7998  -29.2525   -9.0762 H   0  0  0  0  0  0  0  0  0  0  0  0
    6.5596  -23.9472   -8.8202 H   0  0  0  0  0  0  0  0  0  0  0  0
    5.0160  -24.6418   -8.3236 H   0  0  0  0  0  0  0  0  0  0  0  0
   12.4793  -26.7362  -13.0983 H   0  0  0  0  0  0  0  0  0  0  0  0
    5.5264  -30.6935   -6.3726 H   0  0  0  0  0  0  0  0  0  0  0  0
   16.8381  -28.5163  -10.3655 H   0  0  0  0  0  0  0  0  0  0  0  0
    0.6836  -32.3703   -7.9318 H   0  0  0  0  0  0  0  0  0  0  0  0
  1  4  2  0  0  0  0
  1  9  1  0  0  0  0
  2  5  2  0  0  0  0
  2 10  1  0  0  0  0
  3  6  1  0  0  0  0
  3 10  2  0  0  0  0
  4 11  1  0  0  0  0
  5 12  1  0  0  0  0
  6 12  2  0  0  0  0
  7  8  1  0  0  0  0
  7  9  2  0  0  0  0
  8 11  2  0  0  0  0
  8 14  1  0  0  0  0
  9 18  1  0  0  0  0
 10 24  1  0  0  0  0
 11 25  1  0  0  0  0
 12 35  1  0  0  0  0
 13 15  2  0  0  0  0
 13 25  1  0  0  0  0
 14 15  1  0  0  0  0
 14 26  2  0  0  0  0
 15 19  1  0  0  0  0
 16 18  2  0  0  0  0
 16 20  1  0  0  0  0
 17 19  2  0  0  0  0
 17 21  1  0  0  0  0
 18 31  1  0  0  0  0
 19 32  1  0  0  0  0
 20 22  1  0  0  0  0
 20 27  2  0  0  0  0
 21 23  1  0  0  0  0
 21 28  2  0  0  0  0
 22 29  2  0  0  0  0
 22 33  1  0  0  0  0
 23 30  2  0  0  0  0
 23 34  1  0  0  0  0
 24 25  1  0  0  0  0
  1 36  1  0  0  0  0
  2 37  1  0  0  0  0
  3 38  1  0  0  0  0
  4 39  1  0  0  0  0
  5 40  1  0  0  0  0
  6 41  1  0  0  0  0
  7 42  1  0  0  0  0
 13 43  1  0  0  0  0
 16 44  1  0  0  0  0
 17 45  1  0  0  0  0
 24 46  1  0  0  0  0
 24 47  1  0  0  0  0
 31 48  1  0  0  0  0
 32 49  1  0  0  0  0
 33 50  1  0  0  0  0
 34 51  1  0  0  0  0
M  END
> <Hybrid2>
-5.1373443603515625

> <Hybrid2>
-5.137344

$$$$
CHEMBL377501
  -OEChem-02152218473D

 51 53  0     0  0  0  0  0  0999 V2000
    9.6779  -25.0229  -10.3842 C   0  0  0  0  0  0  0  0  0  0  0  0
    5.8268  -22.6904  -10.0995 C   0  0  0  0  0  0  0  0  0  0  0  0
    4.2643  -24.5133  -10.3693 C   0  0  0  0  0  0  0  0  0  0  0  0
    8.4384  -24.8806   -9.7520 C   0  0  0  0  0  0  0  0  0  0  0  0
    5.3000  -22.0712  -11.2329 C   0  0  0  0  0  0  0  0  0  0  0  0
    3.7375  -23.8940  -11.5027 C   0  0  0  0  0  0  0  0  0  0  0  0
    9.4453  -27.4180  -10.3224 C   0  0  0  0  0  0  0  0  0  0  0  0
    8.2033  -27.2754   -9.6889 C   0  0  0  0  0  0  0  0  0  0  0  0
   10.1798  -26.2883  -10.6686 C   0  0  0  0  0  0  0  0  0  0  0  0
    5.3089  -23.9116   -9.6677 C   0  0  0  0  0  0  0  0  0  0  0  0
    7.6693  -26.0005   -9.3882 C   0  0  0  0  0  0  0  0  0  0  0  0
    4.2554  -22.6730  -11.9345 C   0  0  0  0  0  0  0  0  0  0  0  0
    5.7238  -27.0589   -8.4249 C   0  0  0  0  0  0  0  0  0  0  0  0
    7.4405  -28.5010   -9.3307 C   0  0  0  0  0  0  0  0  0  0  0  0
    6.1328  -28.3082   -8.6615 C   0  0  0  0  0  0  0  0  0  0  0  0
   12.5070  -27.0907  -10.7547 C   0  0  0  0  0  0  0  0  0  0  0  0
    4.1029  -29.6424   -8.7689 C   0  0  0  0  0  0  0  0  0  0  0  0
   11.4694  -26.4292  -11.3261 C   0  0  0  0  0  0  0  0  0  0  0  0
    5.3390  -29.4498   -8.2848 C   0  0  0  0  0  0  0  0  0  0  0  0
   13.8396  -27.2530  -11.3842 C   0  0  0  0  0  0  0  0  0  0  0  0
    3.2694  -30.8104   -8.3949 C   0  0  0  0  0  0  0  0  0  0  0  0
   14.8534  -28.0176  -10.5912 C   0  0  0  0  0  0  0  0  0  0  0  0
    1.9127  -30.8756   -9.0248 C   0  0  0  0  0  0  0  0  0  0  0  0
    5.8749  -24.5783   -8.4473 C   0  0  0  0  0  0  0  0  0  0  0  0
    6.4114  -25.9033   -8.7476 N   0  0  0  0  0  0  0  0  0  0  0  0
    7.8836  -29.6150   -9.5832 O   0  0  0  0  0  0  0  0  0  0  0  0
   14.1853  -26.8042  -12.4640 O   0  0  0  0  0  0  0  0  0  0  0  0
    3.5924  -31.7221   -7.6525 O   0  0  0  0  0  0  0  0  0  0  0  0
   14.6045  -28.4783   -9.4960 O   0  0  0  0  0  0  0  0  0  0  0  0
    1.5159  -30.0264   -9.7962 O   0  0  0  0  0  0  0  0  0  0  0  0
   11.5554  -25.8171  -12.5693 O   0  0  0  0  0  0  0  0  0  0  0  0
    5.9299  -30.3264   -7.3976 O   0  0  0  0  0  0  0  0  0  0  0  0
   16.0105  -28.0605  -11.2651 O   0  0  0  0  0  0  0  0  0  0  0  0
    1.2855  -31.9893   -8.6237 O   0  0  0  0  0  0  0  0  0  0  0  0
    3.7476  -22.0770  -13.0214 F   0  0  0  0  0  0  0  0  0  0  0  0
   10.2392  -24.1294  -10.6481 H   0  0  0  0  0  0  0  0  0  0  0  0
    6.6412  -22.2143   -9.5599 H   0  0  0  0  0  0  0  0  0  0  0  0
    3.8542  -25.4645  -10.0401 H   0  0  0  0  0  0  0  0  0  0  0  0
    8.0941  -23.8690   -9.5538 H   0  0  0  0  0  0  0  0  0  0  0  0
    5.7026  -21.1203  -11.5688 H   0  0  0  0  0  0  0  0  0  0  0  0
    2.9245  -24.3624  -12.0494 H   0  0  0  0  0  0  0  0  0  0  0  0
    9.8418  -28.4059  -10.5466 H   0  0  0  0  0  0  0  0  0  0  0  0
    4.7729  -26.8645   -7.9377 H   0  0  0  0  0  0  0  0  0  0  0  0
   12.3943  -27.5357   -9.7698 H   0  0  0  0  0  0  0  0  0  0  0  0
    3.6607  -28.9358   -9.4659 H   0  0  0  0  0  0  0  0  0  0  0  0
    6.6834  -23.9763   -8.0184 H   0  0  0  0  0  0  0  0  0  0  0  0
    5.1098  -24.6946   -7.6726 H   0  0  0  0  0  0  0  0  0  0  0  0
   12.4327  -25.9565  -12.9326 H   0  0  0  0  0  0  0  0  0  0  0  0
    5.3279  -31.0526   -7.2063 H   0  0  0  0  0  0  0  0  0  0  0  0
   16.7121  -28.5339  -10.7693 H   0  0  0  0  0  0  0  0  0  0  0  0
    0.3989  -32.0845   -9.0325 H   0  0  0  0  0  0  0  0  0  0  0  0
  1  4  2  0  0  0  0
  1  9  1  0  0  0  0
  2  5  2  0  0  0  0
  2 10  1  0  0  0  0
  3  6  1  0  0  0  0
  3 10  2  0  0  0  0
  4 11  1  0  0  0  0
  5 12  1  0  0  0  0
  6 12  2  0  0  0  0
  7  8  1  0  0  0  0
  7  9  2  0  0  0  0
  8 11  2  0  0  0  0
  8 14  1  0  0  0  0
  9 18  1  0  0  0  0
 10 24  1  0  0  0  0
 11 25  1  0  0  0  0
 12 35  1  0  0  0  0
 13 15  2  0  0  0  0
 13 25  1  0  0  0  0
 14 15  1  0  0  0  0
 14 26  2  0  0  0  0
 15 19  1  0  0  0  0
 16 18  2  0  0  0  0
 16 20  1  0  0  0  0
 17 19  2  0  0  0  0
 17 21  1  0  0  0  0
 18 31  1  0  0  0  0
 19 32  1  0  0  0  0
 20 22  1  0  0  0  0
 20 27  2  0  0  0  0
 21 23  1  0  0  0  0
 21 28  2  0  0  0  0
 22 29  2  0  0  0  0
 22 33  1  0  0  0  0
 23 30  2  0  0  0  0
 23 34  1  0  0  0  0
 24 25  1  0  0  0  0
  1 36  1  0  0  0  0
  2 37  1  0  0  0  0
  3 38  1  0  0  0  0
  4 39  1  0  0  0  0
  5 40  1  0  0  0  0
  6 41  1  0  0  0  0
  7 42  1  0  0  0  0
 13 43  1  0  0  0  0
 16 44  1  0  0  0  0
 17 45  1  0  0  0  0
 24 46  1  0  0  0  0
 24 47  1  0  0  0  0
 31 48  1  0  0  0  0
 32 49  1  0  0  0  0
 33 50  1  0  0  0  0
 34 51  1  0  0  0  0
M  END
> <Hybrid2>
-5.1373443603515625

> <Hybrid2>
-4.975939

$$$$
CHEMBL378029
  -OEChem-02152218473D

 48 50  0     0  0  0  0  0  0999 V2000
   15.5522  -28.2758  -10.9898 C   0  0  0  0  0  0  0  0  0  0  0  0
   14.5672  -27.6268  -11.7193 C   0  0  0  0  0  0  0  0  0  0  0  0
    5.8018  -25.9321  -10.9164 C   0  0  0  0  0  0  0  0  0  0  0  0
    6.2946  -26.6875   -8.6751 C   0  0  0  0  0  0  0  0  0  0  0  0
    4.7840  -26.8811  -11.0125 C   0  0  0  0  0  0  0  0  0  0  0  0
    5.2768  -27.6364   -8.7711 C   0  0  0  0  0  0  0  0  0  0  0  0
   15.3146  -28.4918   -9.6464 C   0  0  0  0  0  0  0  0  0  0  0  0
   13.3856  -27.2186  -11.0853 C   0  0  0  0  0  0  0  0  0  0  0  0
    6.5571  -25.8353   -9.7477 C   0  0  0  0  0  0  0  0  0  0  0  0
   13.2314  -27.4819   -9.7126 C   0  0  0  0  0  0  0  0  0  0  0  0
   12.0537  -27.0697   -9.1041 C   0  0  0  0  0  0  0  0  0  0  0  0
    4.5215  -27.7332   -9.9398 C   0  0  0  0  0  0  0  0  0  0  0  0
   11.0856  -26.4226   -9.8602 C   0  0  0  0  0  0  0  0  0  0  0  0
   12.3537  -26.5605  -11.7588 C   0  0  0  0  0  0  0  0  0  0  0  0
    9.8382  -25.9765   -9.2572 C   0  0  0  0  0  0  0  0  0  0  0  0
   13.4313  -24.0145  -12.6506 C   0  0  0  0  0  0  0  0  0  0  0  0
   13.0616  -25.0810  -13.6327 C   0  0  0  0  0  0  0  0  0  0  0  0
   15.3477  -23.1677  -11.3276 C   0  0  0  0  0  0  0  0  0  0  0  0
   12.0669  -27.3331  -14.1073 C   0  0  0  0  0  0  0  0  0  0  0  0
    7.6523  -24.8136   -9.6434 C   0  0  0  0  0  0  0  0  0  0  0  0
   14.1865  -28.1115   -9.0020 N   0  0  0  0  0  0  0  0  0  0  0  0
   11.2055  -26.1567  -11.1763 N   0  0  0  0  0  0  0  0  0  0  0  0
    8.9221  -25.3337  -10.0971 N   0  0  0  0  0  0  0  0  0  0  0  0
   14.7444  -24.1039  -12.2468 N   0  0  0  0  0  0  0  0  0  0  0  0
   12.4853  -26.2869  -13.1299 N   0  0  0  0  0  0  0  0  0  0  0  0
    9.6268  -26.1507   -8.0446 O   0  0  0  0  0  0  0  0  0  0  0  0
   12.5795  -23.1967  -12.3420 O   0  0  0  0  0  0  0  0  0  0  0  0
   13.2692  -24.7722  -14.8003 O   0  0  0  0  0  0  0  0  0  0  0  0
   11.8517  -27.2986   -7.7756 O   0  0  0  0  0  0  0  0  0  0  0  0
    3.5424  -28.6427  -10.0309 F   0  0  0  0  0  0  0  0  0  0  0  0
   16.4740  -28.6013  -11.4572 H   0  0  0  0  0  0  0  0  0  0  0  0
   14.7415  -27.4508  -12.7774 H   0  0  0  0  0  0  0  0  0  0  0  0
    5.9994  -25.2731  -11.7577 H   0  0  0  0  0  0  0  0  0  0  0  0
    6.8777  -26.6192   -7.7604 H   0  0  0  0  0  0  0  0  0  0  0  0
    4.1955  -26.9561  -11.9219 H   0  0  0  0  0  0  0  0  0  0  0  0
    5.0724  -28.3003   -7.9364 H   0  0  0  0  0  0  0  0  0  0  0  0
   16.0495  -28.9952   -9.0265 H   0  0  0  0  0  0  0  0  0  0  0  0
   15.7889  -22.3323  -11.8910 H   0  0  0  0  0  0  0  0  0  0  0  0
   14.5800  -22.7818  -10.6409 H   0  0  0  0  0  0  0  0  0  0  0  0
   16.1340  -23.6761  -10.7501 H   0  0  0  0  0  0  0  0  0  0  0  0
   11.0055  -27.1952  -14.3609 H   0  0  0  0  0  0  0  0  0  0  0  0
   12.6759  -27.2473  -15.0193 H   0  0  0  0  0  0  0  0  0  0  0  0
   12.2111  -28.3288  -13.6625 H   0  0  0  0  0  0  0  0  0  0  0  0
    7.4148  -23.9302  -10.2461 H   0  0  0  0  0  0  0  0  0  0  0  0
    7.7786  -24.4772   -8.6090 H   0  0  0  0  0  0  0  0  0  0  0  0
    9.1721  -25.1613  -11.0654 H   0  0  0  0  0  0  0  0  0  0  0  0
   15.3245  -24.8581  -12.6027 H   0  0  0  0  0  0  0  0  0  0  0  0
   12.6173  -27.7565   -7.3952 H   0  0  0  0  0  0  0  0  0  0  0  0
  1  2  2  0  0  0  0
  1  7  1  0  0  0  0
  2  8  1  0  0  0  0
  3  5  2  0  0  0  0
  3  9  1  0  0  0  0
  4  6  1  0  0  0  0
  4  9  2  0  0  0  0
  5 12  1  0  0  0  0
  6 12  2  0  0  0  0
  7 21  2  0  0  0  0
  8 10  1  0  0  0  0
  8 14  2  0  0  0  0
  9 20  1  0  0  0  0
 10 11  2  0  0  0  0
 10 21  1  0  0  0  0
 11 13  1  0  0  0  0
 11 29  1  0  0  0  0
 12 30  1  0  0  0  0
 13 15  1  0  0  0  0
 13 22  2  0  0  0  0
 14 22  1  0  0  0  0
 14 25  1  0  0  0  0
 15 23  1  0  0  0  0
 15 26  2  0  0  0  0
 16 17  1  0  0  0  0
 16 24  1  0  0  0  0
 16 27  2  0  0  0  0
 17 25  1  0  0  0  0
 17 28  2  0  0  0  0
 18 24  1  0  0  0  0
 19 25  1  0  0  0  0
 20 23  1  0  0  0  0
  1 31  1  0  0  0  0
  2 32  1  0  0  0  0
  3 33  1  0  0  0  0
  4 34  1  0  0  0  0
  5 35  1  0  0  0  0
  6 36  1  0  0  0  0
  7 37  1  0  0  0  0
 18 38  1  0  0  0  0
 18 39  1  0  0  0  0
 18 40  1  0  0  0  0
 19 41  1  0  0  0  0
 19 42  1  0  0  0  0
 19 43  1  0  0  0  0
 20 44  1  0  0  0  0
 20 45  1  0  0  0  0
 23 46  1  0  0  0  0
 24 47  1  0  0  0  0
 29 48  1  0  0  0  0
M  END
> <Hybrid2>
-1.6134724617004395

> <Hybrid2>
-1.613472

$$$$
CHEMBL378029
  -OEChem-02152218473D

 48 50  0     0  0  0  0  0  0999 V2000
    5.1605  -28.8558   -7.4964 C   0  0  0  0  0  0  0  0  0  0  0  0
    5.8521  -27.7103   -7.8609 C   0  0  0  0  0  0  0  0  0  0  0  0
   13.8205  -25.6691  -11.4228 C   0  0  0  0  0  0  0  0  0  0  0  0
   13.7668  -28.0482  -11.8396 C   0  0  0  0  0  0  0  0  0  0  0  0
   15.0512  -25.8092  -10.7814 C   0  0  0  0  0  0  0  0  0  0  0  0
   14.9975  -28.1884  -11.1983 C   0  0  0  0  0  0  0  0  0  0  0  0
    5.5707  -30.0532   -8.0496 C   0  0  0  0  0  0  0  0  0  0  0  0
    6.9235  -27.7999   -8.7603 C   0  0  0  0  0  0  0  0  0  0  0  0
   13.1783  -26.7886  -11.9519 C   0  0  0  0  0  0  0  0  0  0  0  0
    7.2701  -29.0628   -9.2724 C   0  0  0  0  0  0  0  0  0  0  0  0
    8.3343  -29.1296  -10.1613 C   0  0  0  0  0  0  0  0  0  0  0  0
   15.6397  -27.0689  -10.6692 C   0  0  0  0  0  0  0  0  0  0  0  0
    9.0079  -27.9659  -10.5074 C   0  0  0  0  0  0  0  0  0  0  0  0
    7.6625  -26.6876   -9.1704 C   0  0  0  0  0  0  0  0  0  0  0  0
   10.1287  -27.9966  -11.4356 C   0  0  0  0  0  0  0  0  0  0  0  0
    5.8348  -24.9652  -10.6305 C   0  0  0  0  0  0  0  0  0  0  0  0
    6.3989  -24.5462   -9.3095 C   0  0  0  0  0  0  0  0  0  0  0  0
    6.3164  -24.9007  -13.0603 C   0  0  0  0  0  0  0  0  0  0  0  0
    7.9401  -24.9809   -7.3802 C   0  0  0  0  0  0  0  0  0  0  0  0
   11.8540  -26.6383  -12.6431 C   0  0  0  0  0  0  0  0  0  0  0  0
    6.5999  -30.1765   -8.9203 N   0  0  0  0  0  0  0  0  0  0  0  0
    8.6985  -26.7426  -10.0331 N   0  0  0  0  0  0  0  0  0  0  0  0
   10.7461  -26.7749  -11.7250 N   0  0  0  0  0  0  0  0  0  0  0  0
    6.6306  -24.5835  -11.6870 N   0  0  0  0  0  0  0  0  0  0  0  0
    7.3348  -25.4161   -8.6721 N   0  0  0  0  0  0  0  0  0  0  0  0
   10.4902  -29.0683  -11.9517 O   0  0  0  0  0  0  0  0  0  0  0  0
    4.7898  -25.5958  -10.6355 O   0  0  0  0  0  0  0  0  0  0  0  0
    6.0072  -23.4489   -8.9298 O   0  0  0  0  0  0  0  0  0  0  0  0
    8.7128  -30.3281  -10.6890 O   0  0  0  0  0  0  0  0  0  0  0  0
   16.8228  -27.2032  -10.0556 F   0  0  0  0  0  0  0  0  0  0  0  0
    4.3291  -28.8125   -6.8028 H   0  0  0  0  0  0  0  0  0  0  0  0
    5.5397  -26.7616   -7.4327 H   0  0  0  0  0  0  0  0  0  0  0  0
   13.3695  -24.6836  -11.5047 H   0  0  0  0  0  0  0  0  0  0  0  0
   13.2739  -28.9261  -12.2491 H   0  0  0  0  0  0  0  0  0  0  0  0
   15.5516  -24.9377  -10.3701 H   0  0  0  0  0  0  0  0  0  0  0  0
   15.4558  -29.1690  -11.1103 H   0  0  0  0  0  0  0  0  0  0  0  0
    5.0670  -30.9815   -7.8002 H   0  0  0  0  0  0  0  0  0  0  0  0
    6.7721  -25.8654  -13.3279 H   0  0  0  0  0  0  0  0  0  0  0  0
    5.2249  -24.9648  -13.1812 H   0  0  0  0  0  0  0  0  0  0  0  0
    6.7125  -24.1132  -13.7183 H   0  0  0  0  0  0  0  0  0  0  0  0
    8.8920  -24.4655   -7.5758 H   0  0  0  0  0  0  0  0  0  0  0  0
    7.2511  -24.2952   -6.8652 H   0  0  0  0  0  0  0  0  0  0  0  0
    8.1233  -25.8611   -6.7464 H   0  0  0  0  0  0  0  0  0  0  0  0
   11.7770  -25.6554  -13.1207 H   0  0  0  0  0  0  0  0  0  0  0  0
   11.7328  -27.3919  -13.4284 H   0  0  0  0  0  0  0  0  0  0  0  0
   10.3707  -25.9214  -11.3245 H   0  0  0  0  0  0  0  0  0  0  0  0
    7.4781  -24.0534  -11.5059 H   0  0  0  0  0  0  0  0  0  0  0  0
    8.1452  -31.0371  -10.3492 H   0  0  0  0  0  0  0  0  0  0  0  0
  1  2  2  0  0  0  0
  1  7  1  0  0  0  0
  2  8  1  0  0  0  0
  3  5  2  0  0  0  0
  3  9  1  0  0  0  0
  4  6  1  0  0  0  0
  4  9  2  0  0  0  0
  5 12  1  0  0  0  0
  6 12  2  0  0  0  0
  7 21  2  0  0  0  0
  8 10  1  0  0  0  0
  8 14  2  0  0  0  0
  9 20  1  0  0  0  0
 10 11  2  0  0  0  0
 10 21  1  0  0  0  0
 11 13  1  0  0  0  0
 11 29  1  0  0  0  0
 12 30  1  0  0  0  0
 13 15  1  0  0  0  0
 13 22  2  0  0  0  0
 14 22  1  0  0  0  0
 14 25  1  0  0  0  0
 15 23  1  0  0  0  0
 15 26  2  0  0  0  0
 16 17  1  0  0  0  0
 16 24  1  0  0  0  0
 16 27  2  0  0  0  0
 17 25  1  0  0  0  0
 17 28  2  0  0  0  0
 18 24  1  0  0  0  0
 19 25  1  0  0  0  0
 20 23  1  0  0  0  0
  1 31  1  0  0  0  0
  2 32  1  0  0  0  0
  3 33  1  0  0  0  0
  4 34  1  0  0  0  0
  5 35  1  0  0  0  0
  6 36  1  0  0  0  0
  7 37  1  0  0  0  0
 18 38  1  0  0  0  0
 18 39  1  0  0  0  0
 18 40  1  0  0  0  0
 19 41  1  0  0  0  0
 19 42  1  0  0  0  0
 19 43  1  0  0  0  0
 20 44  1  0  0  0  0
 20 45  1  0  0  0  0
 23 46  1  0  0  0  0
 24 47  1  0  0  0  0
 29 48  1  0  0  0  0
M  END
> <Hybrid2>
-1.6134724617004395

> <Hybrid2>
-1.332250

$$$$
CHEMBL368084
  -OEChem-02152218473D

 35 37  0     0  0  0  0  0  0999 V2000
    5.0229  -28.5548   -8.3215 C   0  0  0  0  0  0  0  0  0  0  0  0
    6.9753  -29.8464   -8.9191 C   0  0  0  0  0  0  0  0  0  0  0  0
    4.2021  -29.5499   -8.8524 C   0  0  0  0  0  0  0  0  0  0  0  0
    6.1545  -30.8415   -9.4499 C   0  0  0  0  0  0  0  0  0  0  0  0
    7.3684  -24.5564   -9.8922 C   0  0  0  0  0  0  0  0  0  0  0  0
    6.6552  -25.3437   -8.9569 C   0  0  0  0  0  0  0  0  0  0  0  0
   14.9071  -26.9957  -12.4552 C   0  0  0  0  0  0  0  0  0  0  0  0
    6.4095  -28.7030   -8.3549 C   0  0  0  0  0  0  0  0  0  0  0  0
    4.7679  -30.6932   -9.4165 C   0  0  0  0  0  0  0  0  0  0  0  0
    8.5503  -25.2196  -10.1272 C   0  0  0  0  0  0  0  0  0  0  0  0
    7.4520  -26.4320   -8.6873 C   0  0  0  0  0  0  0  0  0  0  0  0
   13.0742  -26.0677  -12.0857 C   0  0  0  0  0  0  0  0  0  0  0  0
   10.7563  -25.5518  -11.1716 C   0  0  0  0  0  0  0  0  0  0  0  0
    9.5973  -24.8253  -10.9919 C   0  0  0  0  0  0  0  0  0  0  0  0
   11.8958  -25.1679  -12.0544 C   0  0  0  0  0  0  0  0  0  0  0  0
    7.2876  -27.6399   -7.7869 C   0  0  0  0  0  0  0  0  0  0  0  0
   14.1660  -25.9004  -12.7953 N   0  0  0  0  0  0  0  0  0  0  0  0
   13.1713  -27.2137  -11.3598 N   0  0  0  0  0  0  0  0  0  0  0  0
   14.3425  -27.8303  -11.5799 N   0  0  0  0  0  0  0  0  0  0  0  0
   11.9016  -24.1381  -12.7185 O   0  0  0  0  0  0  0  0  0  0  0  0
    8.6090  -26.3640   -9.3968 O   0  0  0  0  0  0  0  0  0  0  0  0
    9.4086  -23.6130  -11.6772 O   0  0  0  0  0  0  0  0  0  0  0  0
    3.9797  -31.6501   -9.9239 F   0  0  0  0  0  0  0  0  0  0  0  0
    4.5729  -27.6672   -7.8847 H   0  0  0  0  0  0  0  0  0  0  0  0
    8.0546  -29.9707   -8.9493 H   0  0  0  0  0  0  0  0  0  0  0  0
    3.1227  -29.4349   -8.8258 H   0  0  0  0  0  0  0  0  0  0  0  0
    6.5946  -31.7316   -9.8896 H   0  0  0  0  0  0  0  0  0  0  0  0
    7.0516  -23.6220  -10.3345 H   0  0  0  0  0  0  0  0  0  0  0  0
    5.6818  -25.1408   -8.5338 H   0  0  0  0  0  0  0  0  0  0  0  0
   15.8905  -27.1777  -12.8679 H   0  0  0  0  0  0  0  0  0  0  0  0
   10.8682  -26.4727  -10.6064 H   0  0  0  0  0  0  0  0  0  0  0  0
    6.9048  -27.3048   -6.8068 H   0  0  0  0  0  0  0  0  0  0  0  0
    8.2865  -28.0477   -7.5514 H   0  0  0  0  0  0  0  0  0  0  0  0
   14.6023  -28.7043  -11.1313 H   0  0  0  0  0  0  0  0  0  0  0  0
   10.1739  -23.4541  -12.2246 H   0  0  0  0  0  0  0  0  0  0  0  0
  1  3  2  0  0  0  0
  1  8  1  0  0  0  0
  2  4  1  0  0  0  0
  2  8  2  0  0  0  0
  3  9  1  0  0  0  0
  4  9  2  0  0  0  0
  5  6  1  0  0  0  0
  5 10  2  0  0  0  0
  6 11  2  0  0  0  0
  7 17  2  0  0  0  0
  7 19  1  0  0  0  0
  8 16  1  0  0  0  0
  9 23  1  0  0  0  0
 10 14  1  0  0  0  0
 10 21  1  0  0  0  0
 11 16  1  0  0  0  0
 11 21  1  0  0  0  0
 12 15  1  0  0  0  0
 12 17  1  0  0  0  0
 12 18  2  0  0  0  0
 13 14  2  0  0  0  0
 13 15  1  0  0  0  0
 14 22  1  0  0  0  0
 15 20  2  0  0  0  0
 18 19  1  0  0  0  0
  1 24  1  0  0  0  0
  2 25  1  0  0  0  0
  3 26  1  0  0  0  0
  4 27  1  0  0  0  0
  5 28  1  0  0  0  0
  6 29  1  0  0  0  0
  7 30  1  0  0  0  0
 13 31  1  0  0  0  0
 16 32  1  0  0  0  0
 16 33  1  0  0  0  0
 19 34  1  0  0  0  0
 22 35  1  0  0  0  0
M  END
> <Hybrid2>
-4.24762487411499

> <Hybrid2>
-4.247625

$$$$
CHEMBL368084
  -OEChem-02152218473D

 35 37  0     0  0  0  0  0  0999 V2000
    4.9034  -27.6993   -8.7839 C   0  0  0  0  0  0  0  0  0  0  0  0
    6.8476  -29.0000   -8.1796 C   0  0  0  0  0  0  0  0  0  0  0  0
    4.1461  -28.8679   -8.8632 C   0  0  0  0  0  0  0  0  0  0  0  0
    6.0903  -30.1687   -8.2589 C   0  0  0  0  0  0  0  0  0  0  0  0
    7.7809  -25.0274  -11.7056 C   0  0  0  0  0  0  0  0  0  0  0  0
    6.8397  -25.2342  -10.6690 C   0  0  0  0  0  0  0  0  0  0  0  0
   15.5088  -28.0336  -10.9353 C   0  0  0  0  0  0  0  0  0  0  0  0
    6.2541  -27.7653   -8.4422 C   0  0  0  0  0  0  0  0  0  0  0  0
    4.7395  -30.1027   -8.6007 C   0  0  0  0  0  0  0  0  0  0  0  0
    8.9395  -25.6471  -11.2988 C   0  0  0  0  0  0  0  0  0  0  0  0
    7.4902  -25.9659   -9.7028 C   0  0  0  0  0  0  0  0  0  0  0  0
   13.7044  -27.1547  -11.5087 C   0  0  0  0  0  0  0  0  0  0  0  0
   11.2868  -26.3610  -11.5177 C   0  0  0  0  0  0  0  0  0  0  0  0
   10.1661  -25.7161  -11.9988 C   0  0  0  0  0  0  0  0  0  0  0  0
   12.6067  -26.4435  -12.2077 C   0  0  0  0  0  0  0  0  0  0  0  0
    7.0642  -26.5160   -8.3565 C   0  0  0  0  0  0  0  0  0  0  0  0
   14.9277  -27.3305  -11.9514 N   0  0  0  0  0  0  0  0  0  0  0  0
   13.5738  -27.7311  -10.2838 N   0  0  0  0  0  0  0  0  0  0  0  0
   14.7219  -28.3041   -9.8917 N   0  0  0  0  0  0  0  0  0  0  0  0
   12.8174  -25.9267  -13.2986 O   0  0  0  0  0  0  0  0  0  0  0  0
    8.7706  -26.2217  -10.0790 O   0  0  0  0  0  0  0  0  0  0  0  0
   10.2033  -25.0673  -13.2448 O   0  0  0  0  0  0  0  0  0  0  0  0
    4.0118  -31.2248   -8.6741 F   0  0  0  0  0  0  0  0  0  0  0  0
    4.4323  -26.7419   -8.9910 H   0  0  0  0  0  0  0  0  0  0  0  0
    7.8993  -29.0611   -7.9123 H   0  0  0  0  0  0  0  0  0  0  0  0
    3.0944  -28.8166   -9.1285 H   0  0  0  0  0  0  0  0  0  0  0  0
    6.5521  -31.1302   -8.0550 H   0  0  0  0  0  0  0  0  0  0  0  0
    7.6246  -24.4911  -12.6314 H   0  0  0  0  0  0  0  0  0  0  0  0
    5.8154  -24.8916  -10.6334 H   0  0  0  0  0  0  0  0  0  0  0  0
   16.5420  -28.3524  -10.9715 H   0  0  0  0  0  0  0  0  0  0  0  0
   11.2187  -26.8319  -10.5412 H   0  0  0  0  0  0  0  0  0  0  0  0
    6.5102  -25.7325   -7.8100 H   0  0  0  0  0  0  0  0  0  0  0  0
    7.9638  -26.6797   -7.7373 H   0  0  0  0  0  0  0  0  0  0  0  0
   14.8253  -28.7892   -9.0047 H   0  0  0  0  0  0  0  0  0  0  0  0
   11.0739  -25.1818  -13.6183 H   0  0  0  0  0  0  0  0  0  0  0  0
  1  3  2  0  0  0  0
  1  8  1  0  0  0  0
  2  4  1  0  0  0  0
  2  8  2  0  0  0  0
  3  9  1  0  0  0  0
  4  9  2  0  0  0  0
  5  6  1  0  0  0  0
  5 10  2  0  0  0  0
  6 11  2  0  0  0  0
  7 17  2  0  0  0  0
  7 19  1  0  0  0  0
  8 16  1  0  0  0  0
  9 23  1  0  0  0  0
 10 14  1  0  0  0  0
 10 21  1  0  0  0  0
 11 16  1  0  0  0  0
 11 21  1  0  0  0  0
 12 15  1  0  0  0  0
 12 17  1  0  0  0  0
 12 18  2  0  0  0  0
 13 14  2  0  0  0  0
 13 15  1  0  0  0  0
 14 22  1  0  0  0  0
 15 20  2  0  0  0  0
 18 19  1  0  0  0  0
  1 24  1  0  0  0  0
  2 25  1  0  0  0  0
  3 26  1  0  0  0  0
  4 27  1  0  0  0  0
  5 28  1  0  0  0  0
  6 29  1  0  0  0  0
  7 30  1  0  0  0  0
 13 31  1  0  0  0  0
 16 32  1  0  0  0  0
 16 33  1  0  0  0  0
 19 34  1  0  0  0  0
 22 35  1  0  0  0  0
M  END
> <Hybrid2>
-4.24762487411499

> <Hybrid2>
-4.089005

$$$$
CHEMBL421353
  -OEChem-02152218473D

 33 34  0     0  0  0  0  0  0999 V2000
    8.4485  -22.7537  -10.0393 C   0  0  0  0  0  0  0  0  0  0  0  0
    8.2303  -28.3566   -9.9519 C   0  0  0  0  0  0  0  0  0  0  0  0
    6.5265  -26.7681   -9.3107 C   0  0  0  0  0  0  0  0  0  0  0  0
    7.7827  -29.2349   -8.9651 C   0  0  0  0  0  0  0  0  0  0  0  0
    6.0789  -27.6465   -8.3240 C   0  0  0  0  0  0  0  0  0  0  0  0
    9.6819  -23.3052   -9.6130 C   0  0  0  0  0  0  0  0  0  0  0  0
    7.7392  -23.7603  -10.6564 C   0  0  0  0  0  0  0  0  0  0  0  0
    7.6022  -27.1231  -10.1247 C   0  0  0  0  0  0  0  0  0  0  0  0
    6.7070  -28.8799   -8.1512 C   0  0  0  0  0  0  0  0  0  0  0  0
    9.6888  -24.6320   -9.9828 C   0  0  0  0  0  0  0  0  0  0  0  0
   11.6334  -25.9391  -10.7424 C   0  0  0  0  0  0  0  0  0  0  0  0
   10.6382  -25.6575   -9.8245 C   0  0  0  0  0  0  0  0  0  0  0  0
   12.6493  -27.0123  -10.6208 C   0  0  0  0  0  0  0  0  0  0  0  0
   13.6283  -27.1228  -11.7480 C   0  0  0  0  0  0  0  0  0  0  0  0
    8.0798  -26.1838  -11.1800 C   0  0  0  0  0  0  0  0  0  0  0  0
    8.5030  -24.8975  -10.6165 N   0  0  0  0  0  0  0  0  0  0  0  0
   12.7411  -27.8167   -9.7090 O   0  0  0  0  0  0  0  0  0  0  0  0
   13.5956  -26.3808  -12.7082 O   0  0  0  0  0  0  0  0  0  0  0  0
   10.5282  -26.4389   -8.6571 O   0  0  0  0  0  0  0  0  0  0  0  0
   14.4626  -28.1456  -11.5187 O   0  0  0  0  0  0  0  0  0  0  0  0
    6.2753  -29.7245   -7.2053 F   0  0  0  0  0  0  0  0  0  0  0  0
    8.1134  -21.7340   -9.9120 H   0  0  0  0  0  0  0  0  0  0  0  0
    9.0697  -28.6417  -10.5807 H   0  0  0  0  0  0  0  0  0  0  0  0
    6.0308  -25.8093   -9.4383 H   0  0  0  0  0  0  0  0  0  0  0  0
    8.2710  -30.1954   -8.8310 H   0  0  0  0  0  0  0  0  0  0  0  0
    5.2418  -27.3703   -7.6898 H   0  0  0  0  0  0  0  0  0  0  0  0
   10.4749  -22.7860   -9.0921 H   0  0  0  0  0  0  0  0  0  0  0  0
    6.7612  -23.7596  -11.1187 H   0  0  0  0  0  0  0  0  0  0  0  0
   11.6898  -25.3379  -11.6459 H   0  0  0  0  0  0  0  0  0  0  0  0
    8.9322  -26.5982  -11.7418 H   0  0  0  0  0  0  0  0  0  0  0  0
    7.2987  -25.9780  -11.9292 H   0  0  0  0  0  0  0  0  0  0  0  0
   11.2226  -27.0916   -8.6694 H   0  0  0  0  0  0  0  0  0  0  0  0
   15.1083  -28.2690  -12.2468 H   0  0  0  0  0  0  0  0  0  0  0  0
  1  6  1  0  0  0  0
  1  7  2  0  0  0  0
  2  4  2  0  0  0  0
  2  8  1  0  0  0  0
  3  5  1  0  0  0  0
  3  8  2  0  0  0  0
  4  9  1  0  0  0  0
  5  9  2  0  0  0  0
  6 10  2  0  0  0  0
  7 16  1  0  0  0  0
  8 15  1  0  0  0  0
  9 21  1  0  0  0  0
 10 12  1  0  0  0  0
 10 16  1  0  0  0  0
 11 12  2  0  0  0  0
 11 13  1  0  0  0  0
 12 19  1  0  0  0  0
 13 14  1  0  0  0  0
 13 17  2  0  0  0  0
 14 18  2  0  0  0  0
 14 20  1  0  0  0  0
 15 16  1  0  0  0  0
  1 22  1  0  0  0  0
  2 23  1  0  0  0  0
  3 24  1  0  0  0  0
  4 25  1  0  0  0  0
  5 26  1  0  0  0  0
  6 27  1  0  0  0  0
  7 28  1  0  0  0  0
 11 29  1  0  0  0  0
 15 30  1  0  0  0  0
 15 31  1  0  0  0  0
 19 32  1  0  0  0  0
 20 33  1  0  0  0  0
M  END
> <Hybrid2>
-4.998100757598877

> <Hybrid2>
-4.998101

$$$$
CHEMBL421353
  -OEChem-02152218473D

 33 34  0     0  0  0  0  0  0999 V2000
    8.5794  -23.1546   -9.3791 C   0  0  0  0  0  0  0  0  0  0  0  0
    8.4595  -28.7095  -10.1384 C   0  0  0  0  0  0  0  0  0  0  0  0
    6.7076  -27.2575   -9.3263 C   0  0  0  0  0  0  0  0  0  0  0  0
    7.9962  -29.7318   -9.3102 C   0  0  0  0  0  0  0  0  0  0  0  0
    6.2442  -28.2798   -8.4981 C   0  0  0  0  0  0  0  0  0  0  0  0
    9.8081  -23.7478   -8.9976 C   0  0  0  0  0  0  0  0  0  0  0  0
    7.9087  -24.0663  -10.1641 C   0  0  0  0  0  0  0  0  0  0  0  0
    7.8152  -27.4723  -10.1464 C   0  0  0  0  0  0  0  0  0  0  0  0
    6.8885  -29.5170   -8.4901 C   0  0  0  0  0  0  0  0  0  0  0  0
    9.8509  -25.0039   -9.5613 C   0  0  0  0  0  0  0  0  0  0  0  0
   11.8423  -26.1568  -10.4400 C   0  0  0  0  0  0  0  0  0  0  0  0
   10.8130  -26.0291   -9.5253 C   0  0  0  0  0  0  0  0  0  0  0  0
   12.8729  -27.2228  -10.4451 C   0  0  0  0  0  0  0  0  0  0  0  0
   13.8896  -27.1501  -11.5416 C   0  0  0  0  0  0  0  0  0  0  0  0
    8.3097  -26.3791  -11.0321 C   0  0  0  0  0  0  0  0  0  0  0  0
    8.6912  -25.1866  -10.2683 N   0  0  0  0  0  0  0  0  0  0  0  0
   12.9497  -28.1537   -9.6613 O   0  0  0  0  0  0  0  0  0  0  0  0
   13.8746  -26.2730  -12.3806 O   0  0  0  0  0  0  0  0  0  0  0  0
   10.6795  -26.9782   -8.4924 O   0  0  0  0  0  0  0  0  0  0  0  0
   14.7344  -28.1849  -11.4391 O   0  0  0  0  0  0  0  0  0  0  0  0
    6.4418  -30.4995   -7.6968 F   0  0  0  0  0  0  0  0  0  0  0  0
    8.2220  -22.1700   -9.1124 H   0  0  0  0  0  0  0  0  0  0  0  0
    9.3238  -28.8861  -10.7733 H   0  0  0  0  0  0  0  0  0  0  0  0
    6.1991  -26.2969   -9.3261 H   0  0  0  0  0  0  0  0  0  0  0  0
    8.4972  -30.6951   -9.3044 H   0  0  0  0  0  0  0  0  0  0  0  0
    5.3821  -28.1128   -7.8592 H   0  0  0  0  0  0  0  0  0  0  0  0
   10.5744  -23.3025   -8.3777 H   0  0  0  0  0  0  0  0  0  0  0  0
    6.9463  -24.0090  -10.6547 H   0  0  0  0  0  0  0  0  0  0  0  0
   11.9170  -25.4261  -11.2409 H   0  0  0  0  0  0  0  0  0  0  0  0
    9.1870  -26.6934  -11.6197 H   0  0  0  0  0  0  0  0  0  0  0  0
    7.5496  -26.0734  -11.7688 H   0  0  0  0  0  0  0  0  0  0  0  0
   11.3855  -27.6126   -8.5782 H   0  0  0  0  0  0  0  0  0  0  0  0
   15.4054  -28.1892  -12.1547 H   0  0  0  0  0  0  0  0  0  0  0  0
  1  6  1  0  0  0  0
  1  7  2  0  0  0  0
  2  4  2  0  0  0  0
  2  8  1  0  0  0  0
  3  5  1  0  0  0  0
  3  8  2  0  0  0  0
  4  9  1  0  0  0  0
  5  9  2  0  0  0  0
  6 10  2  0  0  0  0
  7 16  1  0  0  0  0
  8 15  1  0  0  0  0
  9 21  1  0  0  0  0
 10 12  1  0  0  0  0
 10 16  1  0  0  0  0
 11 12  2  0  0  0  0
 11 13  1  0  0  0  0
 12 19  1  0  0  0  0
 13 14  1  0  0  0  0
 13 17  2  0  0  0  0
 14 18  2  0  0  0  0
 14 20  1  0  0  0  0
 15 16  1  0  0  0  0
  1 22  1  0  0  0  0
  2 23  1  0  0  0  0
  3 24  1  0  0  0  0
  4 25  1  0  0  0  0
  5 26  1  0  0  0  0
  6 27  1  0  0  0  0
  7 28  1  0  0  0  0
 11 29  1  0  0  0  0
 15 30  1  0  0  0  0
 15 31  1  0  0  0  0
 19 32  1  0  0  0  0
 20 33  1  0  0  0  0
M  END
> <Hybrid2>
-4.998100757598877

> <Hybrid2>
-4.877964

$$$$
CHEMBL386710
  -OEChem-02152218473D

 48 50  0     1  0  0  0  0  0999 V2000
    6.5763  -25.4673  -10.4378 C   0  0  0  0  0  0  0  0  0  0  0  0
    6.9971  -27.0963   -8.7040 C   0  0  0  0  0  0  0  0  0  0  0  0
    5.4099  -26.1452  -10.7918 C   0  0  0  0  0  0  0  0  0  0  0  0
    5.8306  -27.7743   -9.0579 C   0  0  0  0  0  0  0  0  0  0  0  0
    7.3700  -25.9429   -9.3940 C   0  0  0  0  0  0  0  0  0  0  0  0
    5.0369  -27.2987  -10.1018 C   0  0  0  0  0  0  0  0  0  0  0  0
   12.8203  -27.5220   -9.7002 C   0  0  0  0  0  0  0  0  0  0  0  0
   11.6789  -27.0385  -10.2101 C   0  0  0  0  0  0  0  0  0  0  0  0
   13.9310  -27.8315  -10.6419 C   0  0  0  0  0  0  0  0  0  0  0  0
   12.4021  -27.0688  -12.3639 C   0  0  0  0  0  0  0  0  0  0  0  0
   10.5744  -26.7285   -9.2909 C   0  0  0  0  0  0  0  0  0  0  0  0
   11.7126  -24.4250  -13.6715 C   0  0  0  0  0  0  0  0  0  0  0  0
   10.2778  -24.7029  -14.1063 C   0  0  0  0  0  0  0  0  0  0  0  0
   10.6812  -27.0230  -14.1667 C   0  0  0  0  0  0  0  0  0  0  0  0
   12.1578  -26.8143  -13.8237 C   0  0  1  0  0  0  0  0  0  0  0  0
   14.6811  -27.8500  -12.9771 C   0  0  0  0  0  0  0  0  0  0  0  0
   12.9946  -25.3115  -15.5286 C   0  0  0  0  0  0  0  0  0  0  0  0
    8.6253  -25.2132   -9.0120 C   0  0  0  0  0  0  0  0  0  0  0  0
   11.4400  -26.8014  -11.5356 N   0  0  0  0  0  0  0  0  0  0  0  0
   13.6429  -27.5747  -11.9855 N   0  0  0  0  0  0  0  0  0  0  0  0
   12.6580  -25.4624  -14.1122 N   0  0  1  0  0  0  0  0  0  0  0  0
    9.7750  -25.6954   -9.7431 N   0  0  0  0  0  0  0  0  0  0  0  0
   14.9907  -28.2748  -10.2041 O   0  0  0  0  0  0  0  0  0  0  0  0
   10.4291  -27.3589   -8.2467 O   0  0  0  0  0  0  0  0  0  0  0  0
    9.8634  -25.9815  -13.6307 O   0  0  0  0  0  0  0  0  0  0  0  0
   13.0216  -27.7470   -8.3569 O   0  0  0  0  0  0  0  0  0  0  0  0
    3.9154  -27.9483  -10.4399 F   0  0  0  0  0  0  0  0  0  0  0  0
    6.8591  -24.5698  -10.9818 H   0  0  0  0  0  0  0  0  0  0  0  0
    7.6091  -27.4741   -7.8891 H   0  0  0  0  0  0  0  0  0  0  0  0
    4.7916  -25.7748  -11.6039 H   0  0  0  0  0  0  0  0  0  0  0  0
    5.5401  -28.6726   -8.5213 H   0  0  0  0  0  0  0  0  0  0  0  0
   12.0235  -23.4385  -14.0708 H   0  0  0  0  0  0  0  0  0  0  0  0
   11.7342  -24.3394  -12.5683 H   0  0  0  0  0  0  0  0  0  0  0  0
    9.5869  -23.9313  -13.7454 H   0  0  0  0  0  0  0  0  0  0  0  0
   10.2163  -24.7178  -15.1991 H   0  0  0  0  0  0  0  0  0  0  0  0
   10.5425  -27.0225  -15.2588 H   0  0  0  0  0  0  0  0  0  0  0  0
   10.3024  -27.9968  -13.8117 H   0  0  0  0  0  0  0  0  0  0  0  0
   12.7779  -27.5606  -14.3917 H   0  0  0  0  0  0  0  0  0  0  0  0
   14.5826  -28.8859  -13.3339 H   0  0  0  0  0  0  0  0  0  0  0  0
   14.5707  -27.1582  -13.8252 H   0  0  0  0  0  0  0  0  0  0  0  0
   15.6715  -27.7129  -12.5186 H   0  0  0  0  0  0  0  0  0  0  0  0
   13.7013  -26.1009  -15.8242 H   0  0  0  0  0  0  0  0  0  0  0  0
   12.0795  -25.3934  -16.1335 H   0  0  0  0  0  0  0  0  0  0  0  0
   13.4557  -24.3264  -15.6928 H   0  0  0  0  0  0  0  0  0  0  0  0
    8.5244  -24.1407   -9.2113 H   0  0  0  0  0  0  0  0  0  0  0  0
    8.8362  -25.3269   -7.9434 H   0  0  0  0  0  0  0  0  0  0  0  0
   10.0060  -25.2554  -10.6292 H   0  0  0  0  0  0  0  0  0  0  0  0
   13.9082  -28.0947   -8.2100 H   0  0  0  0  0  0  0  0  0  0  0  0
  1  3  2  0  0  0  0
  1  5  1  0  0  0  0
  2  4  1  0  0  0  0
  2  5  2  0  0  0  0
  3  6  1  0  0  0  0
  4  6  2  0  0  0  0
  5 18  1  0  0  0  0
  6 27  1  0  0  0  0
  7  8  2  0  0  0  0
  7  9  1  0  0  0  0
  7 26  1  0  0  0  0
  8 11  1  0  0  0  0
  8 19  1  0  0  0  0
  9 20  1  0  0  0  0
  9 23  2  0  0  0  0
 10 15  1  0  0  0  0
 10 19  2  0  0  0  0
 10 20  1  0  0  0  0
 11 22  1  0  0  0  0
 11 24  2  0  0  0  0
 12 13  1  0  0  0  0
 12 21  1  0  0  0  0
 13 25  1  0  0  0  0
 14 15  1  0  0  0  0
 14 25  1  0  0  0  0
 15 21  1  0  0  0  0
 16 20  1  0  0  0  0
 17 21  1  0  0  0  0
 18 22  1  0  0  0  0
  1 28  1  0  0  0  0
  2 29  1  0  0  0  0
  3 30  1  0  0  0  0
  4 31  1  0  0  0  0
 12 32  1  0  0  0  0
 12 33  1  0  0  0  0
 13 34  1  0  0  0  0
 13 35  1  0  0  0  0
 14 36  1  0  0  0  0
 14 37  1  0  0  0  0
 15 38  1  0  0  0  0
 16 39  1  0  0  0  0
 16 40  1  0  0  0  0
 16 41  1  0  0  0  0
 17 42  1  0  0  0  0
 17 43  1  0  0  0  0
 17 44  1  0  0  0  0
 18 45  1  0  0  0  0
 18 46  1  0  0  0  0
 22 47  1  0  0  0  0
 26 48  1  0  0  0  0
M  END
> <Hybrid2>
-1.4379065036773682

> <Hybrid2>
-1.437907

$$$$
CHEMBL386710
  -OEChem-02152218473D

 48 50  0     1  0  0  0  0  0999 V2000
    5.9307  -28.0055  -10.2579 C   0  0  0  0  0  0  0  0  0  0  0  0
    6.9163  -28.2564   -8.0664 C   0  0  0  0  0  0  0  0  0  0  0  0
    5.2089  -29.1839  -10.0682 C   0  0  0  0  0  0  0  0  0  0  0  0
    6.1944  -29.4348   -7.8766 C   0  0  0  0  0  0  0  0  0  0  0  0
    6.7845  -27.5418   -9.2570 C   0  0  0  0  0  0  0  0  0  0  0  0
    5.3406  -29.8985   -8.8776 C   0  0  0  0  0  0  0  0  0  0  0  0
   12.3498  -27.2418   -9.5758 C   0  0  0  0  0  0  0  0  0  0  0  0
   11.1765  -26.9900  -10.1729 C   0  0  0  0  0  0  0  0  0  0  0  0
   13.5409  -27.4646  -10.4405 C   0  0  0  0  0  0  0  0  0  0  0  0
   12.0053  -27.1123  -12.2850 C   0  0  0  0  0  0  0  0  0  0  0  0
    9.9926  -26.7679   -9.3303 C   0  0  0  0  0  0  0  0  0  0  0  0
   10.9963  -24.7417  -13.8777 C   0  0  0  0  0  0  0  0  0  0  0  0
    9.6433  -25.2766  -14.3337 C   0  0  0  0  0  0  0  0  0  0  0  0
   10.3913  -27.5024  -14.1442 C   0  0  0  0  0  0  0  0  0  0  0  0
   11.8006  -27.0377  -13.7709 C   0  0  1  0  0  0  0  0  0  0  0  0
   14.4038  -27.5884  -12.7332 C   0  0  0  0  0  0  0  0  0  0  0  0
   12.4896  -25.5921  -15.5879 C   0  0  0  0  0  0  0  0  0  0  0  0
    7.5613  -26.2731   -9.4603 C   0  0  0  0  0  0  0  0  0  0  0  0
   10.9730  -26.9189  -11.5234 N   0  0  0  0  0  0  0  0  0  0  0  0
   13.2868  -27.3834  -11.8128 N   0  0  0  0  0  0  0  0  0  0  0  0
   12.1074  -25.6584  -14.1766 N   0  0  1  0  0  0  0  0  0  0  0  0
    8.8498  -26.5192  -10.0671 N   0  0  0  0  0  0  0  0  0  0  0  0
   14.6312  -27.6963   -9.9220 O   0  0  0  0  0  0  0  0  0  0  0  0
   10.0745  -26.8137   -8.1055 O   0  0  0  0  0  0  0  0  0  0  0  0
    9.4008  -26.5529  -13.7463 O   0  0  0  0  0  0  0  0  0  0  0  0
   12.5135  -27.3051   -8.2102 O   0  0  0  0  0  0  0  0  0  0  0  0
    4.6454  -31.0286   -8.6942 F   0  0  0  0  0  0  0  0  0  0  0  0
    5.8221  -27.4560  -11.1893 H   0  0  0  0  0  0  0  0  0  0  0  0
    7.5789  -27.9026   -7.2808 H   0  0  0  0  0  0  0  0  0  0  0  0
    4.5437  -29.5446  -10.8470 H   0  0  0  0  0  0  0  0  0  0  0  0
    6.2970  -29.9916   -6.9500 H   0  0  0  0  0  0  0  0  0  0  0  0
   11.1763  -23.7613  -14.3633 H   0  0  0  0  0  0  0  0  0  0  0  0
   10.9484  -24.5498  -12.7887 H   0  0  0  0  0  0  0  0  0  0  0  0
    8.8273  -24.5898  -14.0781 H   0  0  0  0  0  0  0  0  0  0  0  0
    9.6407  -25.4041  -15.4209 H   0  0  0  0  0  0  0  0  0  0  0  0
   10.3102  -27.6265  -15.2351 H   0  0  0  0  0  0  0  0  0  0  0  0
   10.1446  -28.4848  -13.7064 H   0  0  0  0  0  0  0  0  0  0  0  0
   12.5535  -27.7301  -14.2377 H   0  0  0  0  0  0  0  0  0  0  0  0
   14.4796  -28.6561  -12.9866 H   0  0  0  0  0  0  0  0  0  0  0  0
   14.2348  -27.0051  -13.6504 H   0  0  0  0  0  0  0  0  0  0  0  0
   15.3379  -27.2579  -12.2554 H   0  0  0  0  0  0  0  0  0  0  0  0
   13.3205  -26.2879  -15.7763 H   0  0  0  0  0  0  0  0  0  0  0  0
   11.6292  -25.8706  -16.2141 H   0  0  0  0  0  0  0  0  0  0  0  0
   12.8062  -24.5679  -15.8342 H   0  0  0  0  0  0  0  0  0  0  0  0
    7.0100  -25.5824  -10.1076 H   0  0  0  0  0  0  0  0  0  0  0  0
    7.7321  -25.7602   -8.5080 H   0  0  0  0  0  0  0  0  0  0  0  0
    8.9186  -26.5088  -11.0807 H   0  0  0  0  0  0  0  0  0  0  0  0
   13.4334  -27.4969   -7.9969 H   0  0  0  0  0  0  0  0  0  0  0  0
  1  3  2  0  0  0  0
  1  5  1  0  0  0  0
  2  4  1  0  0  0  0
  2  5  2  0  0  0  0
  3  6  1  0  0  0  0
  4  6  2  0  0  0  0
  5 18  1  0  0  0  0
  6 27  1  0  0  0  0
  7  8  2  0  0  0  0
  7  9  1  0  0  0  0
  7 26  1  0  0  0  0
  8 11  1  0  0  0  0
  8 19  1  0  0  0  0
  9 20  1  0  0  0  0
  9 23  2  0  0  0  0
 10 15  1  0  0  0  0
 10 19  2  0  0  0  0
 10 20  1  0  0  0  0
 11 22  1  0  0  0  0
 11 24  2  0  0  0  0
 12 13  1  0  0  0  0
 12 21  1  0  0  0  0
 13 25  1  0  0  0  0
 14 15  1  0  0  0  0
 14 25  1  0  0  0  0
 15 21  1  0  0  0  0
 16 20  1  0  0  0  0
 17 21  1  0  0  0  0
 18 22  1  0  0  0  0
  1 28  1  0  0  0  0
  2 29  1  0  0  0  0
  3 30  1  0  0  0  0
  4 31  1  0  0  0  0
 12 32  1  0  0  0  0
 12 33  1  0  0  0  0
 13 34  1  0  0  0  0
 13 35  1  0  0  0  0
 14 36  1  0  0  0  0
 14 37  1  0  0  0  0
 15 38  1  0  0  0  0
 16 39  1  0  0  0  0
 16 40  1  0  0  0  0
 16 41  1  0  0  0  0
 17 42  1  0  0  0  0
 17 43  1  0  0  0  0
 17 44  1  0  0  0  0
 18 45  1  0  0  0  0
 18 46  1  0  0  0  0
 22 47  1  0  0  0  0
 26 48  1  0  0  0  0
M  END
> <Hybrid2>
-1.4379065036773682

> <Hybrid2>
-1.220740

$$$$
CHEMBL210233
  -OEChem-02152218473D

 45 47  0     0  0  0  0  0  0999 V2000
   14.4791  -27.2195  -11.6194 C   0  0  0  0  0  0  0  0  0  0  0  0
   13.2485  -26.8581  -12.1470 C   0  0  0  0  0  0  0  0  0  0  0  0
    4.6116  -27.6501   -9.8827 C   0  0  0  0  0  0  0  0  0  0  0  0
    5.6559  -28.2671   -7.7933 C   0  0  0  0  0  0  0  0  0  0  0  0
    3.8859  -28.8412   -9.8718 C   0  0  0  0  0  0  0  0  0  0  0  0
    4.9302  -29.4582   -7.7823 C   0  0  0  0  0  0  0  0  0  0  0  0
   14.5357  -27.5085  -10.2698 C   0  0  0  0  0  0  0  0  0  0  0  0
   12.1234  -26.7982  -11.3131 C   0  0  0  0  0  0  0  0  0  0  0  0
    5.4966  -27.3630   -8.8435 C   0  0  0  0  0  0  0  0  0  0  0  0
   12.2767  -27.1100   -9.9505 C   0  0  0  0  0  0  0  0  0  0  0  0
   11.1500  -27.0449   -9.1422 C   0  0  0  0  0  0  0  0  0  0  0  0
    4.0451  -29.7453   -8.8216 C   0  0  0  0  0  0  0  0  0  0  0  0
    9.9314  -26.6803   -9.6988 C   0  0  0  0  0  0  0  0  0  0  0  0
   10.8550  -26.4416  -11.7776 C   0  0  0  0  0  0  0  0  0  0  0  0
    8.7285  -26.6018   -8.8830 C   0  0  0  0  0  0  0  0  0  0  0  0
   11.0415  -23.6867  -12.6822 C   0  0  0  0  0  0  0  0  0  0  0  0
   10.8157  -24.8024  -13.6522 C   0  0  0  0  0  0  0  0  0  0  0  0
   10.3998  -27.2355  -14.0921 C   0  0  0  0  0  0  0  0  0  0  0  0
    6.2775  -26.0807   -8.8543 C   0  0  0  0  0  0  0  0  0  0  0  0
   13.4706  -27.4609   -9.4357 N   0  0  0  0  0  0  0  0  0  0  0  0
    9.7543  -26.3761  -11.0000 N   0  0  0  0  0  0  0  0  0  0  0  0
    9.8754  -23.1699  -12.1808 N   0  0  0  0  0  0  0  0  0  0  0  0
    7.5465  -26.2259   -9.5306 N   0  0  0  0  0  0  0  0  0  0  0  0
   10.6777  -26.1261  -13.1346 N   0  0  0  0  0  0  0  0  0  0  0  0
    8.7770  -26.8417   -7.6642 O   0  0  0  0  0  0  0  0  0  0  0  0
   12.1864  -23.3649  -12.4104 O   0  0  0  0  0  0  0  0  0  0  0  0
   10.7347  -24.4352  -14.8185 O   0  0  0  0  0  0  0  0  0  0  0  0
   11.2414  -27.3363   -7.8137 O   0  0  0  0  0  0  0  0  0  0  0  0
    3.3463  -30.8880   -8.8096 F   0  0  0  0  0  0  0  0  0  0  0  0
   15.3632  -27.2734  -12.2435 H   0  0  0  0  0  0  0  0  0  0  0  0
   13.1900  -26.6284  -13.2076 H   0  0  0  0  0  0  0  0  0  0  0  0
    4.4813  -26.9522  -10.7057 H   0  0  0  0  0  0  0  0  0  0  0  0
    6.3430  -28.0518   -6.9791 H   0  0  0  0  0  0  0  0  0  0  0  0
    3.1964  -29.0645  -10.6804 H   0  0  0  0  0  0  0  0  0  0  0  0
    5.0542  -30.1625   -6.9651 H   0  0  0  0  0  0  0  0  0  0  0  0
   15.4717  -27.7975   -9.8027 H   0  0  0  0  0  0  0  0  0  0  0  0
    9.3136  -27.3919  -14.1677 H   0  0  0  0  0  0  0  0  0  0  0  0
   10.8024  -26.9746  -15.0820 H   0  0  0  0  0  0  0  0  0  0  0  0
   10.8789  -28.1583  -13.7330 H   0  0  0  0  0  0  0  0  0  0  0  0
    5.7139  -25.2897   -9.3609 H   0  0  0  0  0  0  0  0  0  0  0  0
    6.4790  -25.7348   -7.8350 H   0  0  0  0  0  0  0  0  0  0  0  0
    8.9868  -23.5562  -12.4834 H   0  0  0  0  0  0  0  0  0  0  0  0
    9.8865  -22.4072  -11.5118 H   0  0  0  0  0  0  0  0  0  0  0  0
    7.5758  -25.9801  -10.5147 H   0  0  0  0  0  0  0  0  0  0  0  0
   12.1543  -27.5704   -7.5849 H   0  0  0  0  0  0  0  0  0  0  0  0
  1  2  2  0  0  0  0
  1  7  1  0  0  0  0
  2  8  1  0  0  0  0
  3  5  2  0  0  0  0
  3  9  1  0  0  0  0
  4  6  1  0  0  0  0
  4  9  2  0  0  0  0
  5 12  1  0  0  0  0
  6 12  2  0  0  0  0
  7 20  2  0  0  0  0
  8 10  1  0  0  0  0
  8 14  2  0  0  0  0
  9 19  1  0  0  0  0
 10 11  2  0  0  0  0
 10 20  1  0  0  0  0
 11 13  1  0  0  0  0
 11 28  1  0  0  0  0
 12 29  1  0  0  0  0
 13 15  1  0  0  0  0
 13 21  2  0  0  0  0
 14 21  1  0  0  0  0
 14 24  1  0  0  0  0
 15 23  1  0  0  0  0
 15 25  2  0  0  0  0
 16 17  1  0  0  0  0
 16 22  1  0  0  0  0
 16 26  2  0  0  0  0
 17 24  1  0  0  0  0
 17 27  2  0  0  0  0
 18 24  1  0  0  0  0
 19 23  1  0  0  0  0
  1 30  1  0  0  0  0
  2 31  1  0  0  0  0
  3 32  1  0  0  0  0
  4 33  1  0  0  0  0
  5 34  1  0  0  0  0
  6 35  1  0  0  0  0
  7 36  1  0  0  0  0
 18 37  1  0  0  0  0
 18 38  1  0  0  0  0
 18 39  1  0  0  0  0
 19 40  1  0  0  0  0
 19 41  1  0  0  0  0
 22 42  1  0  0  0  0
 22 43  1  0  0  0  0
 23 44  1  0  0  0  0
 28 45  1  0  0  0  0
M  END
> <Hybrid2>
-1.761007308959961

> <Hybrid2>
-1.761007

$$$$
CHEMBL210233
  -OEChem-02152218473D

 45 47  0     0  0  0  0  0  0999 V2000
   15.0453  -28.0344  -11.0534 C   0  0  0  0  0  0  0  0  0  0  0  0
   13.9675  -27.4370  -11.6900 C   0  0  0  0  0  0  0  0  0  0  0  0
    5.1730  -26.4617  -10.2564 C   0  0  0  0  0  0  0  0  0  0  0  0
    5.8704  -27.2605   -8.0855 C   0  0  0  0  0  0  0  0  0  0  0  0
    4.2254  -27.4827  -10.3277 C   0  0  0  0  0  0  0  0  0  0  0  0
    4.9227  -28.2815   -8.1568 C   0  0  0  0  0  0  0  0  0  0  0  0
   14.9151  -28.3189   -9.7080 C   0  0  0  0  0  0  0  0  0  0  0  0
   12.8037  -27.1463  -10.9648 C   0  0  0  0  0  0  0  0  0  0  0  0
    5.9956  -26.3506   -9.1353 C   0  0  0  0  0  0  0  0  0  0  0  0
   12.7621  -27.4725   -9.5977 C   0  0  0  0  0  0  0  0  0  0  0  0
   11.6002  -27.1766   -8.8980 C   0  0  0  0  0  0  0  0  0  0  0  0
    4.1002  -28.3926   -9.2779 C   0  0  0  0  0  0  0  0  0  0  0  0
   10.5377  -26.5788   -9.5622 C   0  0  0  0  0  0  0  0  0  0  0  0
   11.6824  -26.5457  -11.5421 C   0  0  0  0  0  0  0  0  0  0  0  0
    9.3035  -26.2542   -8.8621 C   0  0  0  0  0  0  0  0  0  0  0  0
   12.5022  -23.8910  -12.3927 C   0  0  0  0  0  0  0  0  0  0  0  0
   12.1498  -24.9457  -13.3927 C   0  0  0  0  0  0  0  0  0  0  0  0
   11.2977  -27.2489  -13.8984 C   0  0  0  0  0  0  0  0  0  0  0  0
    7.0153  -25.2514   -9.0576 C   0  0  0  0  0  0  0  0  0  0  0  0
   13.8074  -28.0523   -8.9772 N   0  0  0  0  0  0  0  0  0  0  0  0
   10.5488  -26.2547  -10.8706 N   0  0  0  0  0  0  0  0  0  0  0  0
   13.8350  -23.8810  -12.0734 N   0  0  0  0  0  0  0  0  0  0  0  0
    8.2874  -25.6534   -9.6134 N   0  0  0  0  0  0  0  0  0  0  0  0
   11.7008  -26.2110  -12.9059 N   0  0  0  0  0  0  0  0  0  0  0  0
    9.1876  -26.4901   -7.6471 O   0  0  0  0  0  0  0  0  0  0  0  0
   11.6246  -23.1473  -11.9866 O   0  0  0  0  0  0  0  0  0  0  0  0
   12.2545  -24.5783  -14.5570 O   0  0  0  0  0  0  0  0  0  0  0  0
   11.5056  -27.4706   -7.5703 O   0  0  0  0  0  0  0  0  0  0  0  0
    3.1884  -29.3715   -9.3451 F   0  0  0  0  0  0  0  0  0  0  0  0
   15.9555  -28.2692  -11.5923 H   0  0  0  0  0  0  0  0  0  0  0  0
   14.0567  -27.2081  -12.7486 H   0  0  0  0  0  0  0  0  0  0  0  0
    5.2637  -25.7579  -11.0797 H   0  0  0  0  0  0  0  0  0  0  0  0
    6.5067  -27.1816   -7.2080 H   0  0  0  0  0  0  0  0  0  0  0  0
    3.5846  -27.5689  -11.2000 H   0  0  0  0  0  0  0  0  0  0  0  0
    4.8253  -28.9904   -7.3399 H   0  0  0  0  0  0  0  0  0  0  0  0
   15.7258  -28.7866   -9.1585 H   0  0  0  0  0  0  0  0  0  0  0  0
   10.2143  -27.1845  -14.0775 H   0  0  0  0  0  0  0  0  0  0  0  0
   11.8359  -27.0815  -14.8430 H   0  0  0  0  0  0  0  0  0  0  0  0
   11.5458  -28.2465  -13.5068 H   0  0  0  0  0  0  0  0  0  0  0  0
    6.6722  -24.3670   -9.6055 H   0  0  0  0  0  0  0  0  0  0  0  0
    7.1850  -24.9454   -8.0199 H   0  0  0  0  0  0  0  0  0  0  0  0
   14.4588  -24.5513  -12.5114 H   0  0  0  0  0  0  0  0  0  0  0  0
   14.2078  -23.2139  -11.4060 H   0  0  0  0  0  0  0  0  0  0  0  0
    8.4582  -25.4257  -10.5874 H   0  0  0  0  0  0  0  0  0  0  0  0
   12.3272  -27.8815   -7.2595 H   0  0  0  0  0  0  0  0  0  0  0  0
  1  2  2  0  0  0  0
  1  7  1  0  0  0  0
  2  8  1  0  0  0  0
  3  5  2  0  0  0  0
  3  9  1  0  0  0  0
  4  6  1  0  0  0  0
  4  9  2  0  0  0  0
  5 12  1  0  0  0  0
  6 12  2  0  0  0  0
  7 20  2  0  0  0  0
  8 10  1  0  0  0  0
  8 14  2  0  0  0  0
  9 19  1  0  0  0  0
 10 11  2  0  0  0  0
 10 20  1  0  0  0  0
 11 13  1  0  0  0  0
 11 28  1  0  0  0  0
 12 29  1  0  0  0  0
 13 15  1  0  0  0  0
 13 21  2  0  0  0  0
 14 21  1  0  0  0  0
 14 24  1  0  0  0  0
 15 23  1  0  0  0  0
 15 25  2  0  0  0  0
 16 17  1  0  0  0  0
 16 22  1  0  0  0  0
 16 26  2  0  0  0  0
 17 24  1  0  0  0  0
 17 27  2  0  0  0  0
 18 24  1  0  0  0  0
 19 23  1  0  0  0  0
  1 30  1  0  0  0  0
  2 31  1  0  0  0  0
  3 32  1  0  0  0  0
  4 33  1  0  0  0  0
  5 34  1  0  0  0  0
  6 35  1  0  0  0  0
  7 36  1  0  0  0  0
 18 37  1  0  0  0  0
 18 38  1  0  0  0  0
 18 39  1  0  0  0  0
 19 40  1  0  0  0  0
 19 41  1  0  0  0  0
 22 42  1  0  0  0  0
 22 43  1  0  0  0  0
 23 44  1  0  0  0  0
 28 45  1  0  0  0  0
M  END
> <Hybrid2>
-1.761007308959961

> <Hybrid2>
-1.753121

$$$$
CHEMBL209872
  -OEChem-02152218473D

 53 56  0     0  0  0  0  0  0999 V2000
    7.5243  -22.4987  -12.0967 C   0  0  0  0  0  0  0  0  0  0  0  0
    8.2214  -23.6455  -11.7467 C   0  0  0  0  0  0  0  0  0  0  0  0
    3.3652  -30.0614   -8.0788 C   0  0  0  0  0  0  0  0  0  0  0  0
    4.7817  -31.5483   -9.3514 C   0  0  0  0  0  0  0  0  0  0  0  0
    2.2363  -30.6433   -8.6554 C   0  0  0  0  0  0  0  0  0  0  0  0
    3.6528  -32.1303   -9.9280 C   0  0  0  0  0  0  0  0  0  0  0  0
    6.2520  -22.3423  -11.5819 C   0  0  0  0  0  0  0  0  0  0  0  0
    7.6270  -24.5908  -10.8994 C   0  0  0  0  0  0  0  0  0  0  0  0
    4.6380  -30.5139   -8.4269 C   0  0  0  0  0  0  0  0  0  0  0  0
    6.3267  -24.3463  -10.4234 C   0  0  0  0  0  0  0  0  0  0  0  0
    5.7565  -25.2949   -9.5853 C   0  0  0  0  0  0  0  0  0  0  0  0
    2.3801  -31.6778   -9.5800 C   0  0  0  0  0  0  0  0  0  0  0  0
    6.4788  -26.4328   -9.2522 C   0  0  0  0  0  0  0  0  0  0  0  0
    8.2712  -25.7668  -10.5072 C   0  0  0  0  0  0  0  0  0  0  0  0
    5.9147  -27.4488   -8.3761 C   0  0  0  0  0  0  0  0  0  0  0  0
   13.3397  -27.4387  -11.8461 C   0  0  0  0  0  0  0  0  0  0  0  0
    9.7750  -27.2467  -11.7666 C   0  0  0  0  0  0  0  0  0  0  0  0
   10.7227  -25.5517  -10.2017 C   0  0  0  0  0  0  0  0  0  0  0  0
   11.0193  -27.1049  -12.6403 C   0  0  0  0  0  0  0  0  0  0  0  0
   11.9538  -25.4410  -11.1009 C   0  0  0  0  0  0  0  0  0  0  0  0
   14.4707  -26.9302  -10.9886 C   0  0  0  0  0  0  0  0  0  0  0  0
    5.8535  -29.8884   -7.8060 C   0  0  0  0  0  0  0  0  0  0  0  0
    5.6475  -23.2338  -10.7620 N   0  0  0  0  0  0  0  0  0  0  0  0
    7.7257  -26.6940   -9.6929 N   0  0  0  0  0  0  0  0  0  0  0  0
    9.5653  -26.0249  -10.9733 N   0  0  0  0  0  0  0  0  0  0  0  0
   12.1677  -26.6862  -11.8407 N   0  0  0  0  0  0  0  0  0  0  0  0
    6.3387  -28.7669   -8.5778 N   0  0  0  0  0  0  0  0  0  0  0  0
    5.0796  -27.1398   -7.5084 O   0  0  0  0  0  0  0  0  0  0  0  0
   13.4945  -28.4742  -12.4985 O   0  0  0  0  0  0  0  0  0  0  0  0
    4.4988  -25.1085   -9.0935 O   0  0  0  0  0  0  0  0  0  0  0  0
    1.2959  -32.2385  -10.1318 F   0  0  0  0  0  0  0  0  0  0  0  0
    7.9619  -21.7529  -12.7498 H   0  0  0  0  0  0  0  0  0  0  0  0
    9.2232  -23.7807  -12.1455 H   0  0  0  0  0  0  0  0  0  0  0  0
    3.2432  -29.2554   -7.3600 H   0  0  0  0  0  0  0  0  0  0  0  0
    5.7694  -31.9077   -9.6284 H   0  0  0  0  0  0  0  0  0  0  0  0
    1.2455  -30.2916   -8.3841 H   0  0  0  0  0  0  0  0  0  0  0  0
    3.7643  -32.9354  -10.6482 H   0  0  0  0  0  0  0  0  0  0  0  0
    5.6588  -21.4657  -11.8211 H   0  0  0  0  0  0  0  0  0  0  0  0
    8.8969  -27.4355  -12.3929 H   0  0  0  0  0  0  0  0  0  0  0  0
    9.9013  -28.1037  -11.0980 H   0  0  0  0  0  0  0  0  0  0  0  0
   10.9134  -26.2505   -9.3806 H   0  0  0  0  0  0  0  0  0  0  0  0
   10.5199  -24.5719   -9.7558 H   0  0  0  0  0  0  0  0  0  0  0  0
   11.2718  -28.0586  -13.1012 H   0  0  0  0  0  0  0  0  0  0  0  0
   10.8290  -26.3807  -13.4270 H   0  0  0  0  0  0  0  0  0  0  0  0
   11.8281  -24.6422  -11.8335 H   0  0  0  0  0  0  0  0  0  0  0  0
   12.8331  -25.2097  -10.5007 H   0  0  0  0  0  0  0  0  0  0  0  0
   14.3854  -27.3627   -9.9977 H   0  0  0  0  0  0  0  0  0  0  0  0
   14.4111  -25.8485  -10.9286 H   0  0  0  0  0  0  0  0  0  0  0  0
   15.4142  -27.2182  -11.4402 H   0  0  0  0  0  0  0  0  0  0  0  0
    5.6300  -29.5307   -6.7951 H   0  0  0  0  0  0  0  0  0  0  0  0
    6.6691  -30.6143   -7.7212 H   0  0  0  0  0  0  0  0  0  0  0  0
    6.9744  -28.9728   -9.3415 H   0  0  0  0  0  0  0  0  0  0  0  0
    4.2470  -25.8551   -8.5282 H   0  0  0  0  0  0  0  0  0  0  0  0
  1  2  2  0  0  0  0
  1  7  1  0  0  0  0
  2  8  1  0  0  0  0
  3  5  2  0  0  0  0
  3  9  1  0  0  0  0
  4  6  1  0  0  0  0
  4  9  2  0  0  0  0
  5 12  1  0  0  0  0
  6 12  2  0  0  0  0
  7 23  2  0  0  0  0
  8 10  1  0  0  0  0
  8 14  2  0  0  0  0
  9 22  1  0  0  0  0
 10 11  2  0  0  0  0
 10 23  1  0  0  0  0
 11 13  1  0  0  0  0
 11 30  1  0  0  0  0
 12 31  1  0  0  0  0
 13 15  1  0  0  0  0
 13 24  2  0  0  0  0
 14 24  1  0  0  0  0
 14 25  1  0  0  0  0
 15 27  1  0  0  0  0
 15 28  2  0  0  0  0
 16 21  1  0  0  0  0
 16 26  1  0  0  0  0
 16 29  2  0  0  0  0
 17 19  1  0  0  0  0
 17 25  1  0  0  0  0
 18 20  1  0  0  0  0
 18 25  1  0  0  0  0
 19 26  1  0  0  0  0
 20 26  1  0  0  0  0
 22 27  1  0  0  0  0
  1 32  1  0  0  0  0
  2 33  1  0  0  0  0
  3 34  1  0  0  0  0
  4 35  1  0  0  0  0
  5 36  1  0  0  0  0
  6 37  1  0  0  0  0
  7 38  1  0  0  0  0
 17 39  1  0  0  0  0
 17 40  1  0  0  0  0
 18 41  1  0  0  0  0
 18 42  1  0  0  0  0
 19 43  1  0  0  0  0
 19 44  1  0  0  0  0
 20 45  1  0  0  0  0
 20 46  1  0  0  0  0
 21 47  1  0  0  0  0
 21 48  1  0  0  0  0
 21 49  1  0  0  0  0
 22 50  1  0  0  0  0
 22 51  1  0  0  0  0
 27 52  1  0  0  0  0
 30 53  1  0  0  0  0
M  END
> <Hybrid2>
-3.6457607746124268

> <Hybrid2>
-3.645761

$$$$
CHEMBL209872
  -OEChem-02152218473D

 53 56  0     0  0  0  0  0  0999 V2000
   15.2419  -28.0033  -10.5310 C   0  0  0  0  0  0  0  0  0  0  0  0
   14.2794  -27.5325  -11.4117 C   0  0  0  0  0  0  0  0  0  0  0  0
    5.3576  -28.3304  -10.6543 C   0  0  0  0  0  0  0  0  0  0  0  0
    5.9218  -27.6698   -8.3999 C   0  0  0  0  0  0  0  0  0  0  0  0
    4.6756  -29.4413  -10.1581 C   0  0  0  0  0  0  0  0  0  0  0  0
    5.2397  -28.7807   -7.9037 C   0  0  0  0  0  0  0  0  0  0  0  0
   14.8727  -28.1704   -9.2105 C   0  0  0  0  0  0  0  0  0  0  0  0
   12.9888  -27.2466  -10.9454 C   0  0  0  0  0  0  0  0  0  0  0  0
    5.9807  -27.4446   -9.7752 C   0  0  0  0  0  0  0  0  0  0  0  0
   12.7041  -27.4478   -9.5832 C   0  0  0  0  0  0  0  0  0  0  0  0
   11.4199  -27.1590   -9.1421 C   0  0  0  0  0  0  0  0  0  0  0  0
    4.6166  -29.6665   -8.7828 C   0  0  0  0  0  0  0  0  0  0  0  0
   10.4775  -26.6894  -10.0470 C   0  0  0  0  0  0  0  0  0  0  0  0
   11.9722  -26.7697  -11.7765 C   0  0  0  0  0  0  0  0  0  0  0  0
    9.1212  -26.3764   -9.6220 C   0  0  0  0  0  0  0  0  0  0  0  0
   12.4102  -25.4144  -17.0914 C   0  0  0  0  0  0  0  0  0  0  0  0
   12.7348  -25.2379  -13.5399 C   0  0  0  0  0  0  0  0  0  0  0  0
   11.4713  -27.3008  -14.1463 C   0  0  0  0  0  0  0  0  0  0  0  0
   13.4880  -25.3350  -14.8646 C   0  0  0  0  0  0  0  0  0  0  0  0
   12.2441  -27.3612  -15.4638 C   0  0  0  0  0  0  0  0  0  0  0  0
   11.5678  -26.2005  -18.0639 C   0  0  0  0  0  0  0  0  0  0  0  0
    6.7144  -26.2482  -10.3086 C   0  0  0  0  0  0  0  0  0  0  0  0
   13.6370  -27.9045   -8.7261 N   0  0  0  0  0  0  0  0  0  0  0  0
   10.7213  -26.4868  -11.3573 N   0  0  0  0  0  0  0  0  0  0  0  0
   12.2402  -26.5634  -13.1344 N   0  0  0  0  0  0  0  0  0  0  0  0
   12.6814  -26.0239  -15.8688 N   0  0  0  0  0  0  0  0  0  0  0  0
    8.1056  -26.5394  -10.5706 N   0  0  0  0  0  0  0  0  0  0  0  0
    8.9010  -25.9643   -8.4699 O   0  0  0  0  0  0  0  0  0  0  0  0
   12.8123  -24.2925  -17.4099 O   0  0  0  0  0  0  0  0  0  0  0  0
   11.0883  -27.3367   -7.8318 O   0  0  0  0  0  0  0  0  0  0  0  0
    3.9594  -30.7319   -8.3060 F   0  0  0  0  0  0  0  0  0  0  0  0
   16.2466  -28.2319  -10.8669 H   0  0  0  0  0  0  0  0  0  0  0  0
   14.5575  -27.3962  -12.4533 H   0  0  0  0  0  0  0  0  0  0  0  0
    5.3987  -28.1637  -11.7275 H   0  0  0  0  0  0  0  0  0  0  0  0
    6.4041  -26.9849   -7.7073 H   0  0  0  0  0  0  0  0  0  0  0  0
    4.1898  -30.1306  -10.8423 H   0  0  0  0  0  0  0  0  0  0  0  0
    5.1940  -28.9566   -6.8330 H   0  0  0  0  0  0  0  0  0  0  0  0
   15.5832  -28.5352   -8.4759 H   0  0  0  0  0  0  0  0  0  0  0  0
   13.3935  -24.8362  -12.7629 H   0  0  0  0  0  0  0  0  0  0  0  0
   11.8924  -24.5491  -13.6552 H   0  0  0  0  0  0  0  0  0  0  0  0
   10.5071  -26.8033  -14.2938 H   0  0  0  0  0  0  0  0  0  0  0  0
   11.2631  -28.3224  -13.8101 H   0  0  0  0  0  0  0  0  0  0  0  0
   13.7110  -24.3412  -15.2497 H   0  0  0  0  0  0  0  0  0  0  0  0
   14.4239  -25.8642  -14.7113 H   0  0  0  0  0  0  0  0  0  0  0  0
   13.1364  -27.9807  -15.3616 H   0  0  0  0  0  0  0  0  0  0  0  0
   11.6195  -27.7993  -16.2415 H   0  0  0  0  0  0  0  0  0  0  0  0
   10.5222  -25.9667  -17.8955 H   0  0  0  0  0  0  0  0  0  0  0  0
   11.7419  -27.2599  -17.9075 H   0  0  0  0  0  0  0  0  0  0  0  0
   11.8510  -25.9306  -19.0758 H   0  0  0  0  0  0  0  0  0  0  0  0
    6.2603  -25.9021  -11.2435 H   0  0  0  0  0  0  0  0  0  0  0  0
    6.6746  -25.4146   -9.5996 H   0  0  0  0  0  0  0  0  0  0  0  0
    8.3487  -26.8183  -11.5156 H   0  0  0  0  0  0  0  0  0  0  0  0
   10.1614  -27.0919   -7.6855 H   0  0  0  0  0  0  0  0  0  0  0  0
  1  2  2  0  0  0  0
  1  7  1  0  0  0  0
  2  8  1  0  0  0  0
  3  5  2  0  0  0  0
  3  9  1  0  0  0  0
  4  6  1  0  0  0  0
  4  9  2  0  0  0  0
  5 12  1  0  0  0  0
  6 12  2  0  0  0  0
  7 23  2  0  0  0  0
  8 10  1  0  0  0  0
  8 14  2  0  0  0  0
  9 22  1  0  0  0  0
 10 11  2  0  0  0  0
 10 23  1  0  0  0  0
 11 13  1  0  0  0  0
 11 30  1  0  0  0  0
 12 31  1  0  0  0  0
 13 15  1  0  0  0  0
 13 24  2  0  0  0  0
 14 24  1  0  0  0  0
 14 25  1  0  0  0  0
 15 27  1  0  0  0  0
 15 28  2  0  0  0  0
 16 21  1  0  0  0  0
 16 26  1  0  0  0  0
 16 29  2  0  0  0  0
 17 19  1  0  0  0  0
 17 25  1  0  0  0  0
 18 20  1  0  0  0  0
 18 25  1  0  0  0  0
 19 26  1  0  0  0  0
 20 26  1  0  0  0  0
 22 27  1  0  0  0  0
  1 32  1  0  0  0  0
  2 33  1  0  0  0  0
  3 34  1  0  0  0  0
  4 35  1  0  0  0  0
  5 36  1  0  0  0  0
  6 37  1  0  0  0  0
  7 38  1  0  0  0  0
 17 39  1  0  0  0  0
 17 40  1  0  0  0  0
 18 41  1  0  0  0  0
 18 42  1  0  0  0  0
 19 43  1  0  0  0  0
 19 44  1  0  0  0  0
 20 45  1  0  0  0  0
 20 46  1  0  0  0  0
 21 47  1  0  0  0  0
 21 48  1  0  0  0  0
 21 49  1  0  0  0  0
 22 50  1  0  0  0  0
 22 51  1  0  0  0  0
 27 52  1  0  0  0  0
 30 53  1  0  0  0  0
M  END
> <Hybrid2>
-3.6457607746124268

> <Hybrid2>
-3.026070

$$$$
CHEMBL212982
  -OEChem-02152218473D

 47 50  0     0  0  0  0  0  0999 V2000
    4.6040  -28.2567   -9.1564 C   0  0  0  0  0  0  0  0  0  0  0  0
    6.3596  -29.6294   -8.2233 C   0  0  0  0  0  0  0  0  0  0  0  0
    3.9089  -29.4045   -9.5371 C   0  0  0  0  0  0  0  0  0  0  0  0
    5.6645  -30.7772   -8.6040 C   0  0  0  0  0  0  0  0  0  0  0  0
   11.3448  -24.1559  -14.2550 C   0  0  0  0  0  0  0  0  0  0  0  0
   12.3194  -24.9737  -13.7476 C   0  0  0  0  0  0  0  0  0  0  0  0
    8.3937  -25.6111  -10.9209 C   0  0  0  0  0  0  0  0  0  0  0  0
    9.3705  -26.4439  -10.3950 C   0  0  0  0  0  0  0  0  0  0  0  0
    5.8294  -28.3691   -8.4995 C   0  0  0  0  0  0  0  0  0  0  0  0
    9.8762  -24.8553  -12.6266 C   0  0  0  0  0  0  0  0  0  0  0  0
   10.8859  -25.7025  -12.1004 C   0  0  0  0  0  0  0  0  0  0  0  0
    8.6207  -24.8155  -12.0249 C   0  0  0  0  0  0  0  0  0  0  0  0
   10.6193  -26.4935  -10.9815 C   0  0  0  0  0  0  0  0  0  0  0  0
    4.4391  -30.6647   -9.2609 C   0  0  0  0  0  0  0  0  0  0  0  0
    7.1775  -25.7537  -10.1134 C   0  0  0  0  0  0  0  0  0  0  0  0
    8.8494  -27.1814   -9.2101 C   0  0  0  0  0  0  0  0  0  0  0  0
   13.5565  -29.4220   -9.2353 C   0  0  0  0  0  0  0  0  0  0  0  0
   14.8243  -27.8321  -10.6221 C   0  0  0  0  0  0  0  0  0  0  0  0
    6.5777  -27.1340   -8.0887 C   0  0  0  0  0  0  0  0  0  0  0  0
   10.1201  -24.0892  -13.7025 N   0  0  0  0  0  0  0  0  0  0  0  0
   12.1006  -25.7505  -12.6713 N   0  0  0  0  0  0  0  0  0  0  0  0
    7.4829  -26.6804   -9.1225 N   0  0  0  0  0  0  0  0  0  0  0  0
   13.9296  -27.9981   -9.4462 N   0  0  0  0  0  0  0  0  0  0  0  0
    6.1386  -25.1533  -10.3183 O   0  0  0  0  0  0  0  0  0  0  0  0
   13.1641  -25.5395   -9.6676 O   0  0  0  0  0  0  0  0  0  0  0  0
   12.0092  -27.0366   -8.0083 O   0  0  0  0  0  0  0  0  0  0  0  0
    7.6408  -24.0091  -12.5150 O   0  0  0  0  0  0  0  0  0  0  0  0
   11.5776  -27.3119  -10.4640 O   0  0  0  0  0  0  0  0  0  0  0  0
    3.7704  -31.7671   -9.6241 F   0  0  0  0  0  0  0  0  0  0  0  0
   12.6382  -26.8439   -9.3036 S   0  0  0  0  0  0  0  0  0  0  0  0
    4.1832  -27.2791   -9.3766 H   0  0  0  0  0  0  0  0  0  0  0  0
    7.3135  -29.7267   -7.7116 H   0  0  0  0  0  0  0  0  0  0  0  0
    2.9546  -29.3171  -10.0479 H   0  0  0  0  0  0  0  0  0  0  0  0
    6.0771  -31.7585   -8.3895 H   0  0  0  0  0  0  0  0  0  0  0  0
   11.5133  -23.5277  -15.1207 H   0  0  0  0  0  0  0  0  0  0  0  0
   13.3072  -25.0333  -14.1870 H   0  0  0  0  0  0  0  0  0  0  0  0
    8.8268  -28.2623   -9.3747 H   0  0  0  0  0  0  0  0  0  0  0  0
    9.3873  -26.9220   -8.2942 H   0  0  0  0  0  0  0  0  0  0  0  0
   12.8964  -29.5028   -8.3591 H   0  0  0  0  0  0  0  0  0  0  0  0
   13.0318  -29.7992  -10.1255 H   0  0  0  0  0  0  0  0  0  0  0  0
   14.4655  -30.0178   -9.0656 H   0  0  0  0  0  0  0  0  0  0  0  0
   15.0767  -26.7685  -10.7441 H   0  0  0  0  0  0  0  0  0  0  0  0
   15.7459  -28.4120  -10.4662 H   0  0  0  0  0  0  0  0  0  0  0  0
   14.3123  -28.1934  -11.5261 H   0  0  0  0  0  0  0  0  0  0  0  0
    5.8824  -26.3171   -7.8670 H   0  0  0  0  0  0  0  0  0  0  0  0
    7.1669  -27.3144   -7.1834 H   0  0  0  0  0  0  0  0  0  0  0  0
    6.8333  -24.0990  -11.9838 H   0  0  0  0  0  0  0  0  0  0  0  0
  1  3  2  0  0  0  0
  1  9  1  0  0  0  0
  2  4  1  0  0  0  0
  2  9  2  0  0  0  0
  3 14  1  0  0  0  0
  4 14  2  0  0  0  0
  5  6  1  0  0  0  0
  5 20  2  0  0  0  0
  6 21  2  0  0  0  0
  7  8  2  0  0  0  0
  7 12  1  0  0  0  0
  7 15  1  0  0  0  0
  8 13  1  0  0  0  0
  8 16  1  0  0  0  0
  9 19  1  0  0  0  0
 10 11  1  0  0  0  0
 10 12  2  0  0  0  0
 10 20  1  0  0  0  0
 11 13  2  0  0  0  0
 11 21  1  0  0  0  0
 12 27  1  0  0  0  0
 13 28  1  0  0  0  0
 14 29  1  0  0  0  0
 15 22  1  0  0  0  0
 15 24  2  0  0  0  0
 16 22  1  0  0  0  0
 17 23  1  0  0  0  0
 18 23  1  0  0  0  0
 19 22  1  0  0  0  0
 23 30  1  0  0  0  0
 25 30  2  0  0  0  0
 26 30  2  0  0  0  0
 28 30  1  0  0  0  0
  1 31  1  0  0  0  0
  2 32  1  0  0  0  0
  3 33  1  0  0  0  0
  4 34  1  0  0  0  0
  5 35  1  0  0  0  0
  6 36  1  0  0  0  0
 16 37  1  0  0  0  0
 16 38  1  0  0  0  0
 17 39  1  0  0  0  0
 17 40  1  0  0  0  0
 17 41  1  0  0  0  0
 18 42  1  0  0  0  0
 18 43  1  0  0  0  0
 18 44  1  0  0  0  0
 19 45  1  0  0  0  0
 19 46  1  0  0  0  0
 27 47  1  0  0  0  0
M  END
> <Hybrid2>
-3.9776597023010254

> <Hybrid2>
-3.977660

$$$$
CHEMBL212982
  -OEChem-02152218473D

 47 50  0     0  0  0  0  0  0999 V2000
    5.1407  -27.9820  -10.2546 C   0  0  0  0  0  0  0  0  0  0  0  0
    5.6045  -28.2764   -7.9019 C   0  0  0  0  0  0  0  0  0  0  0  0
    4.3888  -29.1568  -10.2534 C   0  0  0  0  0  0  0  0  0  0  0  0
    4.8525  -29.4512   -7.9006 C   0  0  0  0  0  0  0  0  0  0  0  0
   14.6782  -27.8043  -10.2368 C   0  0  0  0  0  0  0  0  0  0  0  0
   14.4166  -27.5885  -11.5639 C   0  0  0  0  0  0  0  0  0  0  0  0
   10.1759  -27.0019   -9.2229 C   0  0  0  0  0  0  0  0  0  0  0  0
    9.8950  -26.7811  -10.5632 C   0  0  0  0  0  0  0  0  0  0  0  0
    5.7487  -27.5418   -9.0789 C   0  0  0  0  0  0  0  0  0  0  0  0
   12.4712  -27.4141   -9.7133 C   0  0  0  0  0  0  0  0  0  0  0  0
   12.1996  -27.1908  -11.0882 C   0  0  0  0  0  0  0  0  0  0  0  0
   11.4435  -27.3165   -8.7783 C   0  0  0  0  0  0  0  0  0  0  0  0
   10.9041  -26.8744  -11.5008 C   0  0  0  0  0  0  0  0  0  0  0  0
    4.2446  -29.8914   -9.0764 C   0  0  0  0  0  0  0  0  0  0  0  0
    8.9362  -26.8403   -8.4556 C   0  0  0  0  0  0  0  0  0  0  0  0
    8.4521  -26.4618  -10.7517 C   0  0  0  0  0  0  0  0  0  0  0  0
   12.0246  -26.3751  -15.6177 C   0  0  0  0  0  0  0  0  0  0  0  0
    9.6017  -26.0314  -15.8818 C   0  0  0  0  0  0  0  0  0  0  0  0
    6.5576  -26.2770   -9.0793 C   0  0  0  0  0  0  0  0  0  0  0  0
   13.7132  -27.7195   -9.3035 N   0  0  0  0  0  0  0  0  0  0  0  0
   13.1816  -27.2815  -12.0000 N   0  0  0  0  0  0  0  0  0  0  0  0
    7.9502  -26.5250   -9.3841 N   0  0  0  0  0  0  0  0  0  0  0  0
   10.8470  -25.5581  -15.2215 N   0  0  0  0  0  0  0  0  0  0  0  0
    8.8499  -26.9698   -7.2483 O   0  0  0  0  0  0  0  0  0  0  0  0
    9.4505  -24.4998  -13.3216 O   0  0  0  0  0  0  0  0  0  0  0  0
   11.9571  -24.5516  -13.1157 O   0  0  0  0  0  0  0  0  0  0  0  0
   11.6848  -27.5278   -7.4562 O   0  0  0  0  0  0  0  0  0  0  0  0
   10.6268  -26.6572  -12.8168 O   0  0  0  0  0  0  0  0  0  0  0  0
    3.5203  -31.0181   -9.0745 F   0  0  0  0  0  0  0  0  0  0  0  0
   10.7158  -25.1826  -13.5298 S   0  0  0  0  0  0  0  0  0  0  0  0
    5.2480  -27.4168  -11.1767 H   0  0  0  0  0  0  0  0  0  0  0  0
    6.0743  -27.9410   -6.9810 H   0  0  0  0  0  0  0  0  0  0  0  0
    3.9149  -29.4992  -11.1684 H   0  0  0  0  0  0  0  0  0  0  0  0
    4.7404  -30.0236   -6.9846 H   0  0  0  0  0  0  0  0  0  0  0  0
   15.6694  -28.0520   -9.8782 H   0  0  0  0  0  0  0  0  0  0  0  0
   15.1880  -27.6544  -12.3209 H   0  0  0  0  0  0  0  0  0  0  0  0
    8.3013  -25.4524  -11.1443 H   0  0  0  0  0  0  0  0  0  0  0  0
    7.9397  -27.2136  -11.3583 H   0  0  0  0  0  0  0  0  0  0  0  0
   12.9231  -25.9947  -15.1098 H   0  0  0  0  0  0  0  0  0  0  0  0
   11.8570  -27.4234  -15.3299 H   0  0  0  0  0  0  0  0  0  0  0  0
   12.1647  -26.3119  -16.7069 H   0  0  0  0  0  0  0  0  0  0  0  0
    8.7562  -25.4036  -15.5640 H   0  0  0  0  0  0  0  0  0  0  0  0
    9.7177  -25.9647  -16.9737 H   0  0  0  0  0  0  0  0  0  0  0  0
    9.4099  -27.0763  -15.5966 H   0  0  0  0  0  0  0  0  0  0  0  0
    6.1702  -25.5712   -9.8222 H   0  0  0  0  0  0  0  0  0  0  0  0
    6.5115  -25.7807   -8.1042 H   0  0  0  0  0  0  0  0  0  0  0  0
   10.8674  -27.4226   -6.9434 H   0  0  0  0  0  0  0  0  0  0  0  0
  1  3  2  0  0  0  0
  1  9  1  0  0  0  0
  2  4  1  0  0  0  0
  2  9  2  0  0  0  0
  3 14  1  0  0  0  0
  4 14  2  0  0  0  0
  5  6  1  0  0  0  0
  5 20  2  0  0  0  0
  6 21  2  0  0  0  0
  7  8  2  0  0  0  0
  7 12  1  0  0  0  0
  7 15  1  0  0  0  0
  8 13  1  0  0  0  0
  8 16  1  0  0  0  0
  9 19  1  0  0  0  0
 10 11  1  0  0  0  0
 10 12  2  0  0  0  0
 10 20  1  0  0  0  0
 11 13  2  0  0  0  0
 11 21  1  0  0  0  0
 12 27  1  0  0  0  0
 13 28  1  0  0  0  0
 14 29  1  0  0  0  0
 15 22  1  0  0  0  0
 15 24  2  0  0  0  0
 16 22  1  0  0  0  0
 17 23  1  0  0  0  0
 18 23  1  0  0  0  0
 19 22  1  0  0  0  0
 23 30  1  0  0  0  0
 25 30  2  0  0  0  0
 26 30  2  0  0  0  0
 28 30  1  0  0  0  0
  1 31  1  0  0  0  0
  2 32  1  0  0  0  0
  3 33  1  0  0  0  0
  4 34  1  0  0  0  0
  5 35  1  0  0  0  0
  6 36  1  0  0  0  0
 16 37  1  0  0  0  0
 16 38  1  0  0  0  0
 17 39  1  0  0  0  0
 17 40  1  0  0  0  0
 17 41  1  0  0  0  0
 18 42  1  0  0  0  0
 18 43  1  0  0  0  0
 18 44  1  0  0  0  0
 19 45  1  0  0  0  0
 19 46  1  0  0  0  0
 27 47  1  0  0  0  0
M  END
> <Hybrid2>
-3.9776597023010254

> <Hybrid2>
-3.189467

$$$$
CHEMBL209854
  -OEChem-02152218473D

 51 55  0     0  0  0  0  0  0999 V2000
   14.3981  -27.5189  -11.7144 C   0  0  0  0  0  0  0  0  0  0  0  0
   13.1211  -27.4120  -12.2468 C   0  0  0  0  0  0  0  0  0  0  0  0
    4.9823  -28.2618  -10.4873 C   0  0  0  0  0  0  0  0  0  0  0  0
    5.4622  -27.9742   -8.1370 C   0  0  0  0  0  0  0  0  0  0  0  0
    4.3167  -29.4547  -10.2054 C   0  0  0  0  0  0  0  0  0  0  0  0
    4.7965  -29.1671   -7.8551 C   0  0  0  0  0  0  0  0  0  0  0  0
   14.5356  -27.3828  -10.3476 C   0  0  0  0  0  0  0  0  0  0  0  0
   12.0248  -27.1744  -11.4089 C   0  0  0  0  0  0  0  0  0  0  0  0
    9.9250  -26.7081   -9.7020 C   0  0  0  0  0  0  0  0  0  0  0  0
   10.7223  -27.0632  -11.9336 C   0  0  0  0  0  0  0  0  0  0  0  0
    9.6778  -26.8289  -11.0641 C   0  0  0  0  0  0  0  0  0  0  0  0
    5.5552  -27.5216   -9.4531 C   0  0  0  0  0  0  0  0  0  0  0  0
   12.2689  -27.0491  -10.0126 C   0  0  0  0  0  0  0  0  0  0  0  0
   11.1933  -26.8129   -9.1610 C   0  0  0  0  0  0  0  0  0  0  0  0
    4.2237  -29.9073   -8.8893 C   0  0  0  0  0  0  0  0  0  0  0  0
    8.6486  -26.4650   -9.0202 C   0  0  0  0  0  0  0  0  0  0  0  0
   10.4293  -27.1862  -13.3678 C   0  0  0  0  0  0  0  0  0  0  0  0
    8.2244  -26.6709  -11.3499 C   0  0  0  0  0  0  0  0  0  0  0  0
   10.7617  -24.6760  -13.6631 C   0  0  0  0  0  0  0  0  0  0  0  0
   10.0890  -26.0946  -15.5601 C   0  0  0  0  0  0  0  0  0  0  0  0
   11.7518  -23.9926  -14.5989 C   0  0  0  0  0  0  0  0  0  0  0  0
   11.1145  -25.3593  -16.4106 C   0  0  0  0  0  0  0  0  0  0  0  0
    6.2712  -26.2371   -9.7557 C   0  0  0  0  0  0  0  0  0  0  0  0
   13.5076  -27.1530   -9.4989 N   0  0  0  0  0  0  0  0  0  0  0  0
    7.6784  -26.4500  -10.0162 N   0  0  0  0  0  0  0  0  0  0  0  0
   10.4566  -26.0280  -14.1466 N   0  0  0  0  0  0  0  0  0  0  0  0
    8.5252  -26.3139   -7.8186 O   0  0  0  0  0  0  0  0  0  0  0  0
   10.1730  -28.3177  -13.7768 O   0  0  0  0  0  0  0  0  0  0  0  0
   11.2683  -24.0161  -15.9442 O   0  0  0  0  0  0  0  0  0  0  0  0
   11.3871  -26.6873   -7.8196 O   0  0  0  0  0  0  0  0  0  0  0  0
    3.5821  -31.0515   -8.6181 F   0  0  0  0  0  0  0  0  0  0  0  0
   15.2566  -27.7026  -12.3498 H   0  0  0  0  0  0  0  0  0  0  0  0
   13.0064  -27.5182  -13.3227 H   0  0  0  0  0  0  0  0  0  0  0  0
    5.0503  -27.9177  -11.5160 H   0  0  0  0  0  0  0  0  0  0  0  0
    5.9052  -27.4039   -7.3247 H   0  0  0  0  0  0  0  0  0  0  0  0
    3.8701  -30.0308  -11.0103 H   0  0  0  0  0  0  0  0  0  0  0  0
    4.7243  -29.5200   -6.8306 H   0  0  0  0  0  0  0  0  0  0  0  0
   15.5109  -27.4572   -9.8777 H   0  0  0  0  0  0  0  0  0  0  0  0
    8.0177  -25.7946  -11.9708 H   0  0  0  0  0  0  0  0  0  0  0  0
    7.7843  -27.5793  -11.7707 H   0  0  0  0  0  0  0  0  0  0  0  0
   11.1534  -24.6855  -12.6432 H   0  0  0  0  0  0  0  0  0  0  0  0
    9.8113  -24.1293  -13.6573 H   0  0  0  0  0  0  0  0  0  0  0  0
    9.1078  -25.6132  -15.6483 H   0  0  0  0  0  0  0  0  0  0  0  0
    9.9886  -27.1331  -15.8900 H   0  0  0  0  0  0  0  0  0  0  0  0
   11.8734  -22.9440  -14.3094 H   0  0  0  0  0  0  0  0  0  0  0  0
   12.7396  -24.4665  -14.5535 H   0  0  0  0  0  0  0  0  0  0  0  0
   12.0859  -25.8679  -16.4020 H   0  0  0  0  0  0  0  0  0  0  0  0
   10.7723  -25.3128  -17.4492 H   0  0  0  0  0  0  0  0  0  0  0  0
    5.8354  -25.7500  -10.6348 H   0  0  0  0  0  0  0  0  0  0  0  0
    6.1880  -25.5345   -8.9199 H   0  0  0  0  0  0  0  0  0  0  0  0
   10.5416  -26.5265   -7.3712 H   0  0  0  0  0  0  0  0  0  0  0  0
  1  2  2  0  0  0  0
  1  7  1  0  0  0  0
  2  8  1  0  0  0  0
  3  5  2  0  0  0  0
  3 12  1  0  0  0  0
  4  6  1  0  0  0  0
  4 12  2  0  0  0  0
  5 15  1  0  0  0  0
  6 15  2  0  0  0  0
  7 24  2  0  0  0  0
  8 10  2  0  0  0  0
  8 13  1  0  0  0  0
  9 11  2  0  0  0  0
  9 14  1  0  0  0  0
  9 16  1  0  0  0  0
 10 11  1  0  0  0  0
 10 17  1  0  0  0  0
 11 18  1  0  0  0  0
 12 23  1  0  0  0  0
 13 14  2  0  0  0  0
 13 24  1  0  0  0  0
 14 30  1  0  0  0  0
 15 31  1  0  0  0  0
 16 25  1  0  0  0  0
 16 27  2  0  0  0  0
 17 26  1  0  0  0  0
 17 28  2  0  0  0  0
 18 25  1  0  0  0  0
 19 21  1  0  0  0  0
 19 26  1  0  0  0  0
 20 22  1  0  0  0  0
 20 26  1  0  0  0  0
 21 29  1  0  0  0  0
 22 29  1  0  0  0  0
 23 25  1  0  0  0  0
  1 32  1  0  0  0  0
  2 33  1  0  0  0  0
  3 34  1  0  0  0  0
  4 35  1  0  0  0  0
  5 36  1  0  0  0  0
  6 37  1  0  0  0  0
  7 38  1  0  0  0  0
 18 39  1  0  0  0  0
 18 40  1  0  0  0  0
 19 41  1  0  0  0  0
 19 42  1  0  0  0  0
 20 43  1  0  0  0  0
 20 44  1  0  0  0  0
 21 45  1  0  0  0  0
 21 46  1  0  0  0  0
 22 47  1  0  0  0  0
 22 48  1  0  0  0  0
 23 49  1  0  0  0  0
 23 50  1  0  0  0  0
 30 51  1  0  0  0  0
M  END
> <Hybrid2>
-2.9853878021240234

> <Hybrid2>
-2.985388

$$$$
CHEMBL209854
  -OEChem-02152218473D

 51 55  0     0  0  0  0  0  0999 V2000
    5.2406  -23.0605   -7.5122 C   0  0  0  0  0  0  0  0  0  0  0  0
    5.8043  -24.3202   -7.6566 C   0  0  0  0  0  0  0  0  0  0  0  0
   12.5438  -26.8099  -12.5486 C   0  0  0  0  0  0  0  0  0  0  0  0
   12.1135  -28.6308  -11.0201 C   0  0  0  0  0  0  0  0  0  0  0  0
   13.8737  -26.7724  -12.1297 C   0  0  0  0  0  0  0  0  0  0  0  0
   13.4434  -28.5933  -10.6011 C   0  0  0  0  0  0  0  0  0  0  0  0
    5.5240  -22.1173   -8.4795 C   0  0  0  0  0  0  0  0  0  0  0  0
    6.6285  -24.6031   -8.7526 C   0  0  0  0  0  0  0  0  0  0  0  0
    8.2335  -25.0821  -10.9285 C   0  0  0  0  0  0  0  0  0  0  0  0
    7.2084  -25.8767   -8.9136 C   0  0  0  0  0  0  0  0  0  0  0  0
    8.0122  -26.1023  -10.0113 C   0  0  0  0  0  0  0  0  0  0  0  0
   11.6636  -27.7391  -11.9938 C   0  0  0  0  0  0  0  0  0  0  0  0
    6.8607  -23.5640   -9.6967 C   0  0  0  0  0  0  0  0  0  0  0  0
    7.6768  -23.8234  -10.7942 C   0  0  0  0  0  0  0  0  0  0  0  0
   14.3235  -27.6642  -11.1559 C   0  0  0  0  0  0  0  0  0  0  0  0
    9.1155  -25.5928  -11.9842 C   0  0  0  0  0  0  0  0  0  0  0  0
    6.9933  -26.9748   -7.9618 C   0  0  0  0  0  0  0  0  0  0  0  0
    8.7382  -27.3386  -10.4158 C   0  0  0  0  0  0  0  0  0  0  0  0
    4.9601  -27.7457   -9.2924 C   0  0  0  0  0  0  0  0  0  0  0  0
    5.6161  -28.8860   -7.2108 C   0  0  0  0  0  0  0  0  0  0  0  0
    4.7456  -29.1217   -9.9115 C   0  0  0  0  0  0  0  0  0  0  0  0
    5.3848  -30.2115   -7.9215 C   0  0  0  0  0  0  0  0  0  0  0  0
   10.2322  -27.7804  -12.4449 C   0  0  0  0  0  0  0  0  0  0  0  0
    6.3132  -22.3437   -9.5546 N   0  0  0  0  0  0  0  0  0  0  0  0
    9.3887  -26.9146  -11.6497 N   0  0  0  0  0  0  0  0  0  0  0  0
    5.9140  -27.8327   -8.1800 N   0  0  0  0  0  0  0  0  0  0  0  0
    9.4987  -24.9419  -12.9389 O   0  0  0  0  0  0  0  0  0  0  0  0
    7.7907  -27.0509   -7.0282 O   0  0  0  0  0  0  0  0  0  0  0  0
    4.3617  -30.0676   -8.9105 O   0  0  0  0  0  0  0  0  0  0  0  0
    7.9222  -22.8549  -11.7186 O   0  0  0  0  0  0  0  0  0  0  0  0
   15.6013  -27.6301  -10.7554 F   0  0  0  0  0  0  0  0  0  0  0  0
    4.6008  -22.8261   -6.6695 H   0  0  0  0  0  0  0  0  0  0  0  0
    5.5849  -25.0673   -6.8979 H   0  0  0  0  0  0  0  0  0  0  0  0
   12.2023  -26.1106  -13.3073 H   0  0  0  0  0  0  0  0  0  0  0  0
   11.4350  -29.3584  -10.5824 H   0  0  0  0  0  0  0  0  0  0  0  0
   14.5591  -26.0497  -12.5619 H   0  0  0  0  0  0  0  0  0  0  0  0
   13.7939  -29.2871   -9.8428 H   0  0  0  0  0  0  0  0  0  0  0  0
    5.1102  -21.1161   -8.4167 H   0  0  0  0  0  0  0  0  0  0  0  0
    9.5028  -27.6261   -9.6887 H   0  0  0  0  0  0  0  0  0  0  0  0
    8.0568  -28.1651  -10.6363 H   0  0  0  0  0  0  0  0  0  0  0  0
    5.2870  -27.0364  -10.0564 H   0  0  0  0  0  0  0  0  0  0  0  0
    4.0210  -27.3755   -8.8643 H   0  0  0  0  0  0  0  0  0  0  0  0
    4.7065  -28.5742   -6.6840 H   0  0  0  0  0  0  0  0  0  0  0  0
    6.4200  -28.9791   -6.4744 H   0  0  0  0  0  0  0  0  0  0  0  0
    3.9384  -29.0753  -10.6494 H   0  0  0  0  0  0  0  0  0  0  0  0
    5.6467  -29.4750  -10.4267 H   0  0  0  0  0  0  0  0  0  0  0  0
    6.3033  -30.5843   -8.3904 H   0  0  0  0  0  0  0  0  0  0  0  0
    5.0482  -30.9655   -7.2030 H   0  0  0  0  0  0  0  0  0  0  0  0
   10.1478  -27.4658  -13.4908 H   0  0  0  0  0  0  0  0  0  0  0  0
    9.8280  -28.7959  -12.3771 H   0  0  0  0  0  0  0  0  0  0  0  0
    8.5057  -23.1952  -12.4154 H   0  0  0  0  0  0  0  0  0  0  0  0
  1  2  2  0  0  0  0
  1  7  1  0  0  0  0
  2  8  1  0  0  0  0
  3  5  2  0  0  0  0
  3 12  1  0  0  0  0
  4  6  1  0  0  0  0
  4 12  2  0  0  0  0
  5 15  1  0  0  0  0
  6 15  2  0  0  0  0
  7 24  2  0  0  0  0
  8 10  2  0  0  0  0
  8 13  1  0  0  0  0
  9 11  2  0  0  0  0
  9 14  1  0  0  0  0
  9 16  1  0  0  0  0
 10 11  1  0  0  0  0
 10 17  1  0  0  0  0
 11 18  1  0  0  0  0
 12 23  1  0  0  0  0
 13 14  2  0  0  0  0
 13 24  1  0  0  0  0
 14 30  1  0  0  0  0
 15 31  1  0  0  0  0
 16 25  1  0  0  0  0
 16 27  2  0  0  0  0
 17 26  1  0  0  0  0
 17 28  2  0  0  0  0
 18 25  1  0  0  0  0
 19 21  1  0  0  0  0
 19 26  1  0  0  0  0
 20 22  1  0  0  0  0
 20 26  1  0  0  0  0
 21 29  1  0  0  0  0
 22 29  1  0  0  0  0
 23 25  1  0  0  0  0
  1 32  1  0  0  0  0
  2 33  1  0  0  0  0
  3 34  1  0  0  0  0
  4 35  1  0  0  0  0
  5 36  1  0  0  0  0
  6 37  1  0  0  0  0
  7 38  1  0  0  0  0
 18 39  1  0  0  0  0
 18 40  1  0  0  0  0
 19 41  1  0  0  0  0
 19 42  1  0  0  0  0
 20 43  1  0  0  0  0
 20 44  1  0  0  0  0
 21 45  1  0  0  0  0
 21 46  1  0  0  0  0
 22 47  1  0  0  0  0
 22 48  1  0  0  0  0
 23 49  1  0  0  0  0
 23 50  1  0  0  0  0
 30 51  1  0  0  0  0
M  END
> <Hybrid2>
-2.9853878021240234

> <Hybrid2>
-1.924725

$$$$
CHEMBL212000
  -OEChem-02152218473D

 41 44  0     1  0  0  0  0  0999 V2000
    4.6586  -30.4588   -8.3077 C   0  0  0  0  0  0  0  0  0  0  0  0
    5.8969  -30.4132   -8.9322 C   0  0  0  0  0  0  0  0  0  0  0  0
   12.9605  -26.0279   -9.6847 C   0  0  0  0  0  0  0  0  0  0  0  0
   12.5520  -26.7039  -11.9679 C   0  0  0  0  0  0  0  0  0  0  0  0
   14.1676  -26.7268   -9.6937 C   0  0  0  0  0  0  0  0  0  0  0  0
   13.7591  -27.4027  -11.9770 C   0  0  0  0  0  0  0  0  0  0  0  0
    4.1087  -29.2644   -7.8877 C   0  0  0  0  0  0  0  0  0  0  0  0
    6.5479  -29.1878   -9.1197 C   0  0  0  0  0  0  0  0  0  0  0  0
    7.7629  -26.7475   -9.4514 C   0  0  0  0  0  0  0  0  0  0  0  0
    8.4033  -27.8912   -9.9130 C   0  0  0  0  0  0  0  0  0  0  0  0
   12.1526  -26.0165  -10.8218 C   0  0  0  0  0  0  0  0  0  0  0  0
    5.8994  -28.0110   -8.6518 C   0  0  0  0  0  0  0  0  0  0  0  0
    7.8051  -29.1242   -9.7518 C   0  0  0  0  0  0  0  0  0  0  0  0
    6.5292  -26.7821   -8.8273 C   0  0  0  0  0  0  0  0  0  0  0  0
   14.5669  -27.4141  -10.8399 C   0  0  0  0  0  0  0  0  0  0  0  0
    8.6154  -25.5891   -9.7416 C   0  0  0  0  0  0  0  0  0  0  0  0
    9.7121  -27.5416  -10.5396 C   0  0  2  0  0  0  0  0  0  0  0  0
    9.3160  -30.9019   -9.2905 C   0  0  0  0  0  0  0  0  0  0  0  0
   10.8535  -25.2639  -10.8130 C   0  0  0  0  0  0  0  0  0  0  0  0
    4.6992  -28.0578   -8.0464 N   0  0  0  0  0  0  0  0  0  0  0  0
    9.7502  -26.0921  -10.3711 N   0  0  0  0  0  0  0  0  0  0  0  0
    8.3365  -24.4392   -9.4551 O   0  0  0  0  0  0  0  0  0  0  0  0
    5.9415  -25.6348   -8.3901 O   0  0  0  0  0  0  0  0  0  0  0  0
    9.7022  -27.8811  -11.9136 O   0  0  0  0  0  0  0  0  0  0  0  0
    8.4402  -30.2408  -10.2023 O   0  0  0  0  0  0  0  0  0  0  0  0
   15.7274  -28.0830  -10.8496 F   0  0  0  0  0  0  0  0  0  0  0  0
    4.1423  -31.3994   -8.1550 H   0  0  0  0  0  0  0  0  0  0  0  0
    6.3412  -31.3473   -9.2678 H   0  0  0  0  0  0  0  0  0  0  0  0
   12.6574  -25.4960   -8.7867 H   0  0  0  0  0  0  0  0  0  0  0  0
   11.9292  -26.7003  -12.8587 H   0  0  0  0  0  0  0  0  0  0  0  0
   14.7969  -26.7352   -8.8089 H   0  0  0  0  0  0  0  0  0  0  0  0
   14.0702  -27.9383  -12.8690 H   0  0  0  0  0  0  0  0  0  0  0  0
    3.1428  -29.2414   -7.3936 H   0  0  0  0  0  0  0  0  0  0  0  0
   10.5580  -28.0020  -10.0186 H   0  0  0  0  0  0  0  0  0  0  0  0
    9.7567  -31.7760   -9.7762 H   0  0  0  0  0  0  0  0  0  0  0  0
    8.7560  -31.2083   -8.4033 H   0  0  0  0  0  0  0  0  0  0  0  0
   10.1105  -30.2117   -8.9971 H   0  0  0  0  0  0  0  0  0  0  0  0
   10.9137  -24.3977  -10.1450 H   0  0  0  0  0  0  0  0  0  0  0  0
   10.6106  -24.8877  -11.8123 H   0  0  0  0  0  0  0  0  0  0  0  0
    6.5074  -24.8713   -8.5864 H   0  0  0  0  0  0  0  0  0  0  0  0
    8.9834  -27.3740  -12.3284 H   0  0  0  0  0  0  0  0  0  0  0  0
  1  2  2  0  0  0  0
  1  7  1  0  0  0  0
  2  8  1  0  0  0  0
  3  5  2  0  0  0  0
  3 11  1  0  0  0  0
  4  6  1  0  0  0  0
  4 11  2  0  0  0  0
  5 15  1  0  0  0  0
  6 15  2  0  0  0  0
  7 20  2  0  0  0  0
  8 12  1  0  0  0  0
  8 13  2  0  0  0  0
  9 10  2  0  0  0  0
  9 14  1  0  0  0  0
  9 16  1  0  0  0  0
 10 13  1  0  0  0  0
 10 17  1  0  0  0  0
 11 19  1  0  0  0  0
 12 14  2  0  0  0  0
 12 20  1  0  0  0  0
 13 25  1  0  0  0  0
 14 23  1  0  0  0  0
 15 26  1  0  0  0  0
 16 21  1  0  0  0  0
 16 22  2  0  0  0  0
 17 21  1  0  0  0  0
 17 24  1  0  0  0  0
 18 25  1  0  0  0  0
 19 21  1  0  0  0  0
  1 27  1  0  0  0  0
  2 28  1  0  0  0  0
  3 29  1  0  0  0  0
  4 30  1  0  0  0  0
  5 31  1  0  0  0  0
  6 32  1  0  0  0  0
  7 33  1  0  0  0  0
 17 34  1  0  0  0  0
 18 35  1  0  0  0  0
 18 36  1  0  0  0  0
 18 37  1  0  0  0  0
 19 38  1  0  0  0  0
 19 39  1  0  0  0  0
 23 40  1  0  0  0  0
 24 41  1  0  0  0  0
M  END
> <Hybrid2>
-6.0579047203063965

> <Hybrid2>
-6.057905

$$$$
CHEMBL212000
  -OEChem-02152218473D

 41 44  0     1  0  0  0  0  0999 V2000
    4.7256  -30.3727   -7.9820 C   0  0  0  0  0  0  0  0  0  0  0  0
    5.7908  -30.4595   -8.8670 C   0  0  0  0  0  0  0  0  0  0  0  0
   13.1761  -26.4151  -12.4296 C   0  0  0  0  0  0  0  0  0  0  0  0
   12.3650  -27.0805  -10.2532 C   0  0  0  0  0  0  0  0  0  0  0  0
   14.4257  -26.9573  -12.1296 C   0  0  0  0  0  0  0  0  0  0  0  0
   13.6147  -27.6227   -9.9533 C   0  0  0  0  0  0  0  0  0  0  0  0
    4.4328  -29.1322   -7.4519 C   0  0  0  0  0  0  0  0  0  0  0  0
    6.5292  -29.3165   -9.1969 C   0  0  0  0  0  0  0  0  0  0  0  0
    7.9299  -27.0315   -9.7950 C   0  0  0  0  0  0  0  0  0  0  0  0
    8.3072  -28.2314  -10.3860 C   0  0  0  0  0  0  0  0  0  0  0  0
   12.1457  -26.4767  -11.4913 C   0  0  0  0  0  0  0  0  0  0  0  0
    6.1495  -28.0830   -8.5980 C   0  0  0  0  0  0  0  0  0  0  0  0
    7.6132  -29.3876  -10.0935 C   0  0  0  0  0  0  0  0  0  0  0  0
    6.8704  -26.9342   -8.9115 C   0  0  0  0  0  0  0  0  0  0  0  0
   14.6451  -27.5611  -10.8915 C   0  0  0  0  0  0  0  0  0  0  0  0
    8.8323  -25.9764  -10.2699 C   0  0  0  0  0  0  0  0  0  0  0  0
    9.4774  -28.0250  -11.2892 C   0  0  2  0  0  0  0  0  0  0  0  0
    8.9594  -31.3447   -9.9778 C   0  0  0  0  0  0  0  0  0  0  0  0
   10.8001  -25.8940  -11.8138 C   0  0  0  0  0  0  0  0  0  0  0  0
    5.1167  -28.0013   -7.7402 N   0  0  0  0  0  0  0  0  0  0  0  0
    9.7291  -26.5953  -11.1358 N   0  0  0  0  0  0  0  0  0  0  0  0
    8.7667  -24.8091   -9.9302 O   0  0  0  0  0  0  0  0  0  0  0  0
    6.5392  -25.7365   -8.3561 O   0  0  0  0  0  0  0  0  0  0  0  0
    9.1220  -28.3253  -12.6258 O   0  0  0  0  0  0  0  0  0  0  0  0
    7.9911  -30.5603  -10.6724 O   0  0  0  0  0  0  0  0  0  0  0  0
   15.8443  -28.0842  -10.6044 F   0  0  0  0  0  0  0  0  0  0  0  0
    4.1447  -31.2483   -7.7165 H   0  0  0  0  0  0  0  0  0  0  0  0
    6.0320  -31.4312   -9.2917 H   0  0  0  0  0  0  0  0  0  0  0  0
   13.0149  -25.9460  -13.3966 H   0  0  0  0  0  0  0  0  0  0  0  0
   11.5681  -27.1334   -9.5161 H   0  0  0  0  0  0  0  0  0  0  0  0
   15.2277  -26.9100  -12.8602 H   0  0  0  0  0  0  0  0  0  0  0  0
   13.7860  -28.0925   -8.9893 H   0  0  0  0  0  0  0  0  0  0  0  0
    3.6107  -29.0065   -6.7549 H   0  0  0  0  0  0  0  0  0  0  0  0
   10.3548  -28.5966  -10.9692 H   0  0  0  0  0  0  0  0  0  0  0  0
    9.1711  -32.2524  -10.5481 H   0  0  0  0  0  0  0  0  0  0  0  0
    8.5766  -31.6046   -8.9876 H   0  0  0  0  0  0  0  0  0  0  0  0
    9.8775  -30.7624   -9.8700 H   0  0  0  0  0  0  0  0  0  0  0  0
   10.7544  -24.8405  -11.5170 H   0  0  0  0  0  0  0  0  0  0  0  0
   10.6005  -25.9378  -12.8896 H   0  0  0  0  0  0  0  0  0  0  0  0
    7.1367  -25.0413   -8.6749 H   0  0  0  0  0  0  0  0  0  0  0  0
    8.3968  -27.7253  -12.8707 H   0  0  0  0  0  0  0  0  0  0  0  0
  1  2  2  0  0  0  0
  1  7  1  0  0  0  0
  2  8  1  0  0  0  0
  3  5  2  0  0  0  0
  3 11  1  0  0  0  0
  4  6  1  0  0  0  0
  4 11  2  0  0  0  0
  5 15  1  0  0  0  0
  6 15  2  0  0  0  0
  7 20  2  0  0  0  0
  8 12  1  0  0  0  0
  8 13  2  0  0  0  0
  9 10  2  0  0  0  0
  9 14  1  0  0  0  0
  9 16  1  0  0  0  0
 10 13  1  0  0  0  0
 10 17  1  0  0  0  0
 11 19  1  0  0  0  0
 12 14  2  0  0  0  0
 12 20  1  0  0  0  0
 13 25  1  0  0  0  0
 14 23  1  0  0  0  0
 15 26  1  0  0  0  0
 16 21  1  0  0  0  0
 16 22  2  0  0  0  0
 17 21  1  0  0  0  0
 17 24  1  0  0  0  0
 18 25  1  0  0  0  0
 19 21  1  0  0  0  0
  1 27  1  0  0  0  0
  2 28  1  0  0  0  0
  3 29  1  0  0  0  0
  4 30  1  0  0  0  0
  5 31  1  0  0  0  0
  6 32  1  0  0  0  0
  7 33  1  0  0  0  0
 17 34  1  0  0  0  0
 18 35  1  0  0  0  0
 18 36  1  0  0  0  0
 18 37  1  0  0  0  0
 19 38  1  0  0  0  0
 19 39  1  0  0  0  0
 23 40  1  0  0  0  0
 24 41  1  0  0  0  0
M  END
> <Hybrid2>
-6.0579047203063965

> <Hybrid2>
-5.253491

$$$$
CHEMBL36070
  -OEChem-02152218473D

 42 45  0     0  0  0  0  0  0999 V2000
    3.8636  -31.7676   -9.7069 C   0  0  0  0  0  0  0  0  0  0  0  0
    3.2380  -30.6958   -9.0702 C   0  0  0  0  0  0  0  0  0  0  0  0
    5.2561  -31.8399   -9.7448 C   0  0  0  0  0  0  0  0  0  0  0  0
    5.3978  -25.3679   -9.4785 C   0  0  0  0  0  0  0  0  0  0  0  0
   14.8357  -27.8644   -9.9971 C   0  0  0  0  0  0  0  0  0  0  0  0
   13.8225  -27.5571   -9.1013 C   0  0  0  0  0  0  0  0  0  0  0  0
    6.5638  -25.1136  -10.2004 C   0  0  0  0  0  0  0  0  0  0  0  0
    4.0048  -29.6963   -8.4715 C   0  0  0  0  0  0  0  0  0  0  0  0
    6.0230  -30.8403   -9.1461 C   0  0  0  0  0  0  0  0  0  0  0  0
    5.2893  -26.5307   -8.7157 C   0  0  0  0  0  0  0  0  0  0  0  0
    7.5130  -27.1849   -9.3969 C   0  0  0  0  0  0  0  0  0  0  0  0
   14.5685  -27.7058  -11.3430 C   0  0  0  0  0  0  0  0  0  0  0  0
   11.5212  -26.7780   -8.7329 C   0  0  0  0  0  0  0  0  0  0  0  0
   12.5845  -27.1047   -9.5782 C   0  0  0  0  0  0  0  0  0  0  0  0
    7.6214  -26.0221  -10.1596 C   0  0  0  0  0  0  0  0  0  0  0  0
    5.3973  -29.7685   -8.5094 C   0  0  0  0  0  0  0  0  0  0  0  0
    6.3469  -27.4392   -8.6749 C   0  0  0  0  0  0  0  0  0  0  0  0
   12.4037  -26.9738  -10.9665 C   0  0  0  0  0  0  0  0  0  0  0  0
   11.1704  -26.5238  -11.4177 C   0  0  0  0  0  0  0  0  0  0  0  0
   10.1753  -26.2237  -10.4972 C   0  0  0  0  0  0  0  0  0  0  0  0
    8.8702  -25.7492  -10.9323 C   0  0  0  0  0  0  0  0  0  0  0  0
    6.2310  -28.6827   -7.8594 C   0  0  0  0  0  0  0  0  0  0  0  0
   13.3858  -27.2717  -11.8384 N   0  0  0  0  0  0  0  0  0  0  0  0
   10.3195  -26.3395   -9.1619 N   0  0  0  0  0  0  0  0  0  0  0  0
    8.7617  -25.0928  -11.9781 O   0  0  0  0  0  0  0  0  0  0  0  0
   10.9404  -26.3774  -12.7535 O   0  0  0  0  0  0  0  0  0  0  0  0
    3.2664  -32.5466  -10.1719 H   0  0  0  0  0  0  0  0  0  0  0  0
    2.1537  -30.6399   -9.0397 H   0  0  0  0  0  0  0  0  0  0  0  0
    5.7436  -32.6748  -10.2394 H   0  0  0  0  0  0  0  0  0  0  0  0
    4.5738  -24.6610   -9.5112 H   0  0  0  0  0  0  0  0  0  0  0  0
   15.8017  -28.2157   -9.6542 H   0  0  0  0  0  0  0  0  0  0  0  0
   14.0005  -27.6723   -8.0351 H   0  0  0  0  0  0  0  0  0  0  0  0
    6.6378  -24.2041  -10.7912 H   0  0  0  0  0  0  0  0  0  0  0  0
    3.5087  -28.8647   -7.9778 H   0  0  0  0  0  0  0  0  0  0  0  0
    7.1073  -30.9049   -9.1807 H   0  0  0  0  0  0  0  0  0  0  0  0
    4.3772  -26.7203   -8.1559 H   0  0  0  0  0  0  0  0  0  0  0  0
    8.3363  -27.8950   -9.3648 H   0  0  0  0  0  0  0  0  0  0  0  0
   15.3229  -27.9310  -12.0898 H   0  0  0  0  0  0  0  0  0  0  0  0
   11.6107  -26.8624   -7.6535 H   0  0  0  0  0  0  0  0  0  0  0  0
    5.8080  -28.4551   -6.8652 H   0  0  0  0  0  0  0  0  0  0  0  0
    7.2317  -29.0895   -7.6306 H   0  0  0  0  0  0  0  0  0  0  0  0
   10.0376  -26.0570  -12.9040 H   0  0  0  0  0  0  0  0  0  0  0  0
  1  2  1  0  0  0  0
  1  3  2  0  0  0  0
  2  8  2  0  0  0  0
  3  9  1  0  0  0  0
  4  7  2  0  0  0  0
  4 10  1  0  0  0  0
  5  6  2  0  0  0  0
  5 12  1  0  0  0  0
  6 14  1  0  0  0  0
  7 15  1  0  0  0  0
  8 16  1  0  0  0  0
  9 16  2  0  0  0  0
 10 17  2  0  0  0  0
 11 15  2  0  0  0  0
 11 17  1  0  0  0  0
 12 23  2  0  0  0  0
 13 14  2  0  0  0  0
 13 24  1  0  0  0  0
 14 18  1  0  0  0  0
 15 21  1  0  0  0  0
 16 22  1  0  0  0  0
 17 22  1  0  0  0  0
 18 19  2  0  0  0  0
 18 23  1  0  0  0  0
 19 20  1  0  0  0  0
 19 26  1  0  0  0  0
 20 21  1  0  0  0  0
 20 24  2  0  0  0  0
 21 25  2  0  0  0  0
  1 27  1  0  0  0  0
  2 28  1  0  0  0  0
  3 29  1  0  0  0  0
  4 30  1  0  0  0  0
  5 31  1  0  0  0  0
  6 32  1  0  0  0  0
  7 33  1  0  0  0  0
  8 34  1  0  0  0  0
  9 35  1  0  0  0  0
 10 36  1  0  0  0  0
 11 37  1  0  0  0  0
 12 38  1  0  0  0  0
 13 39  1  0  0  0  0
 22 40  1  0  0  0  0
 22 41  1  0  0  0  0
 26 42  1  0  0  0  0
M  END
> <Hybrid2>
-4.470311164855957

> <Hybrid2>
-4.470311

$$$$
CHEMBL36070
  -OEChem-02152218473D

 42 45  0     0  0  0  0  0  0999 V2000
    5.9486  -31.7673  -10.5123 C   0  0  0  0  0  0  0  0  0  0  0  0
    4.7735  -31.0273  -10.3817 C   0  0  0  0  0  0  0  0  0  0  0  0
    7.0911  -31.3927   -9.8051 C   0  0  0  0  0  0  0  0  0  0  0  0
    5.0630  -24.8434   -9.1730 C   0  0  0  0  0  0  0  0  0  0  0  0
   14.2187  -27.7948  -10.9165 C   0  0  0  0  0  0  0  0  0  0  0  0
   13.3257  -27.5119   -9.8938 C   0  0  0  0  0  0  0  0  0  0  0  0
    6.1614  -24.5912   -9.9949 C   0  0  0  0  0  0  0  0  0  0  0  0
    4.7409  -29.9125   -9.5439 C   0  0  0  0  0  0  0  0  0  0  0  0
    7.0584  -30.2780   -8.9673 C   0  0  0  0  0  0  0  0  0  0  0  0
    4.9611  -26.0604   -8.4990 C   0  0  0  0  0  0  0  0  0  0  0  0
    7.0560  -26.7730   -9.4690 C   0  0  0  0  0  0  0  0  0  0  0  0
   13.8235  -27.5057  -12.2081 C   0  0  0  0  0  0  0  0  0  0  0  0
   11.1292  -26.6438   -9.2152 C   0  0  0  0  0  0  0  0  0  0  0  0
   12.0759  -26.9531  -10.1949 C   0  0  0  0  0  0  0  0  0  0  0  0
    7.1579  -25.5560  -10.1429 C   0  0  0  0  0  0  0  0  0  0  0  0
    5.8833  -29.5378   -8.8367 C   0  0  0  0  0  0  0  0  0  0  0  0
    5.9576  -27.0252   -8.6470 C   0  0  0  0  0  0  0  0  0  0  0  0
   11.7603  -26.6925  -11.5401 C   0  0  0  0  0  0  0  0  0  0  0  0
   10.5177  -26.1387  -11.8166 C   0  0  0  0  0  0  0  0  0  0  0  0
    9.6449  -25.8661  -10.7719 C   0  0  0  0  0  0  0  0  0  0  0  0
    8.3342  -25.2852  -11.0226 C   0  0  0  0  0  0  0  0  0  0  0  0
    5.8486  -28.3267   -7.9265 C   0  0  0  0  0  0  0  0  0  0  0  0
   12.6256  -26.9666  -12.5350 N   0  0  0  0  0  0  0  0  0  0  0  0
    9.9196  -26.1050   -9.4740 N   0  0  0  0  0  0  0  0  0  0  0  0
    8.1593  -24.5356  -11.9941 O   0  0  0  0  0  0  0  0  0  0  0  0
   10.1598  -25.8646  -13.1032 O   0  0  0  0  0  0  0  0  0  0  0  0
    5.9735  -32.6361  -11.1637 H   0  0  0  0  0  0  0  0  0  0  0  0
    3.8836  -31.3195  -10.9315 H   0  0  0  0  0  0  0  0  0  0  0  0
    8.0058  -31.9693   -9.9057 H   0  0  0  0  0  0  0  0  0  0  0  0
    4.2865  -24.0927   -9.0586 H   0  0  0  0  0  0  0  0  0  0  0  0
   15.1910  -28.2265  -10.7103 H   0  0  0  0  0  0  0  0  0  0  0  0
   13.6060  -27.7286   -8.8661 H   0  0  0  0  0  0  0  0  0  0  0  0
    6.2310  -23.6392  -10.5150 H   0  0  0  0  0  0  0  0  0  0  0  0
    3.8209  -29.3417   -9.4485 H   0  0  0  0  0  0  0  0  0  0  0  0
    7.9534  -29.9934   -8.4203 H   0  0  0  0  0  0  0  0  0  0  0  0
    4.1021  -26.2481   -7.8602 H   0  0  0  0  0  0  0  0  0  0  0  0
    7.8315  -27.5269   -9.5841 H   0  0  0  0  0  0  0  0  0  0  0  0
   14.4803  -27.7059  -13.0484 H   0  0  0  0  0  0  0  0  0  0  0  0
   11.3250  -26.8263   -8.1623 H   0  0  0  0  0  0  0  0  0  0  0  0
    4.9236  -28.3591   -7.3245 H   0  0  0  0  0  0  0  0  0  0  0  0
    6.6526  -28.4211   -7.1755 H   0  0  0  0  0  0  0  0  0  0  0  0
    9.2683  -25.4838  -13.1281 H   0  0  0  0  0  0  0  0  0  0  0  0
  1  2  1  0  0  0  0
  1  3  2  0  0  0  0
  2  8  2  0  0  0  0
  3  9  1  0  0  0  0
  4  7  2  0  0  0  0
  4 10  1  0  0  0  0
  5  6  2  0  0  0  0
  5 12  1  0  0  0  0
  6 14  1  0  0  0  0
  7 15  1  0  0  0  0
  8 16  1  0  0  0  0
  9 16  2  0  0  0  0
 10 17  2  0  0  0  0
 11 15  2  0  0  0  0
 11 17  1  0  0  0  0
 12 23  2  0  0  0  0
 13 14  2  0  0  0  0
 13 24  1  0  0  0  0
 14 18  1  0  0  0  0
 15 21  1  0  0  0  0
 16 22  1  0  0  0  0
 17 22  1  0  0  0  0
 18 19  2  0  0  0  0
 18 23  1  0  0  0  0
 19 20  1  0  0  0  0
 19 26  1  0  0  0  0
 20 21  1  0  0  0  0
 20 24  2  0  0  0  0
 21 25  2  0  0  0  0
  1 27  1  0  0  0  0
  2 28  1  0  0  0  0
  3 29  1  0  0  0  0
  4 30  1  0  0  0  0
  5 31  1  0  0  0  0
  6 32  1  0  0  0  0
  7 33  1  0  0  0  0
  8 34  1  0  0  0  0
  9 35  1  0  0  0  0
 10 36  1  0  0  0  0
 11 37  1  0  0  0  0
 12 38  1  0  0  0  0
 13 39  1  0  0  0  0
 22 40  1  0  0  0  0
 22 41  1  0  0  0  0
 26 42  1  0  0  0  0
M  END
> <Hybrid2>
-4.470311164855957

> <Hybrid2>
-3.855803

$$$$
CHEMBL209307
  -OEChem-02152218473D

 55 58  0     0  0  0  0  0  0999 V2000
   13.6965  -25.4053  -12.1273 C   0  0  0  0  0  0  0  0  0  0  0  0
   12.3574  -25.6121  -12.4232 C   0  0  0  0  0  0  0  0  0  0  0  0
    5.0166  -27.8201   -8.0066 C   0  0  0  0  0  0  0  0  0  0  0  0
    4.7482  -29.4981   -9.7240 C   0  0  0  0  0  0  0  0  0  0  0  0
    3.7351  -27.3396   -8.2758 C   0  0  0  0  0  0  0  0  0  0  0  0
    3.4667  -29.0177   -9.9932 C   0  0  0  0  0  0  0  0  0  0  0  0
   14.1483  -25.8174  -10.8887 C   0  0  0  0  0  0  0  0  0  0  0  0
   11.5207  -26.2200  -11.4770 C   0  0  0  0  0  0  0  0  0  0  0  0
    5.5232  -28.8993   -8.7308 C   0  0  0  0  0  0  0  0  0  0  0  0
   12.0694  -26.6070  -10.2416 C   0  0  0  0  0  0  0  0  0  0  0  0
   11.2238  -27.2076   -9.3189 C   0  0  0  0  0  0  0  0  0  0  0  0
    2.9601  -27.9384   -9.2691 C   0  0  0  0  0  0  0  0  0  0  0  0
    9.8880  -27.4018   -9.6434 C   0  0  0  0  0  0  0  0  0  0  0  0
   10.1637  -26.4581  -11.7086 C   0  0  0  0  0  0  0  0  0  0  0  0
    8.9715  -28.0285   -8.7021 C   0  0  0  0  0  0  0  0  0  0  0  0
    9.0969  -23.9097  -11.9215 C   0  0  0  0  0  0  0  0  0  0  0  0
    9.0236  -24.7827  -13.1098 C   0  0  0  0  0  0  0  0  0  0  0  0
    6.5448  -23.2356   -9.3705 C   0  0  0  0  0  0  0  0  0  0  0  0
    6.1333  -24.6347   -9.8078 C   0  0  0  0  0  0  0  0  0  0  0  0
    7.9874  -23.1469   -9.8424 C   0  0  0  0  0  0  0  0  0  0  0  0
    6.8283  -24.7918  -11.1534 C   0  0  0  0  0  0  0  0  0  0  0  0
    9.5683  -27.0284  -14.0931 C   0  0  0  0  0  0  0  0  0  0  0  0
    6.9022  -29.4175   -8.4410 C   0  0  0  0  0  0  0  0  0  0  0  0
   13.3693  -26.4070   -9.9518 N   0  0  0  0  0  0  0  0  0  0  0  0
    9.3343  -27.0415  -10.8185 N   0  0  0  0  0  0  0  0  0  0  0  0
    8.0298  -23.9654  -11.0465 N   0  0  0  0  0  0  0  0  0  0  0  0
    7.9074  -28.7582   -9.2433 N   0  0  0  0  0  0  0  0  0  0  0  0
    9.5738  -26.0671  -12.9779 N   0  0  0  0  0  0  0  0  0  0  0  0
    9.1345  -27.8907   -7.4774 O   0  0  0  0  0  0  0  0  0  0  0  0
   10.0832  -23.1884  -11.7758 O   0  0  0  0  0  0  0  0  0  0  0  0
    8.4929  -24.3095  -14.1126 O   0  0  0  0  0  0  0  0  0  0  0  0
   11.7027  -27.6020   -8.1050 O   0  0  0  0  0  0  0  0  0  0  0  0
    1.7284  -27.4788   -9.5258 F   0  0  0  0  0  0  0  0  0  0  0  0
   14.3634  -24.9378  -12.8421 H   0  0  0  0  0  0  0  0  0  0  0  0
   11.9891  -25.2928  -13.3945 H   0  0  0  0  0  0  0  0  0  0  0  0
    5.6132  -27.3466   -7.2314 H   0  0  0  0  0  0  0  0  0  0  0  0
    5.1345  -30.3397  -10.2931 H   0  0  0  0  0  0  0  0  0  0  0  0
    3.3403  -26.5000   -7.7118 H   0  0  0  0  0  0  0  0  0  0  0  0
    2.8632  -29.4833  -10.7667 H   0  0  0  0  0  0  0  0  0  0  0  0
   15.1864  -25.6815  -10.6031 H   0  0  0  0  0  0  0  0  0  0  0  0
    5.9309  -22.4834   -9.8796 H   0  0  0  0  0  0  0  0  0  0  0  0
    6.4480  -23.0916   -8.2908 H   0  0  0  0  0  0  0  0  0  0  0  0
    6.5115  -25.3791   -9.0973 H   0  0  0  0  0  0  0  0  0  0  0  0
    5.0480  -24.7455   -9.8824 H   0  0  0  0  0  0  0  0  0  0  0  0
    8.3106  -22.1238  -10.0561 H   0  0  0  0  0  0  0  0  0  0  0  0
    8.6772  -23.5896   -9.1153 H   0  0  0  0  0  0  0  0  0  0  0  0
    7.0882  -25.8299  -11.3795 H   0  0  0  0  0  0  0  0  0  0  0  0
    6.2183  -24.3891  -11.9694 H   0  0  0  0  0  0  0  0  0  0  0  0
    8.6477  -27.6294  -14.0553 H   0  0  0  0  0  0  0  0  0  0  0  0
    9.6109  -26.4830  -15.0474 H   0  0  0  0  0  0  0  0  0  0  0  0
   10.4423  -27.6911  -14.0101 H   0  0  0  0  0  0  0  0  0  0  0  0
    7.1584  -29.2648   -7.3869 H   0  0  0  0  0  0  0  0  0  0  0  0
    6.9678  -30.4925   -8.6392 H   0  0  0  0  0  0  0  0  0  0  0  0
    7.7854  -28.7859  -10.2503 H   0  0  0  0  0  0  0  0  0  0  0  0
   10.9924  -28.0011   -7.5791 H   0  0  0  0  0  0  0  0  0  0  0  0
  1  2  2  0  0  0  0
  1  7  1  0  0  0  0
  2  8  1  0  0  0  0
  3  5  2  0  0  0  0
  3  9  1  0  0  0  0
  4  6  1  0  0  0  0
  4  9  2  0  0  0  0
  5 12  1  0  0  0  0
  6 12  2  0  0  0  0
  7 24  2  0  0  0  0
  8 10  1  0  0  0  0
  8 14  2  0  0  0  0
  9 23  1  0  0  0  0
 10 11  2  0  0  0  0
 10 24  1  0  0  0  0
 11 13  1  0  0  0  0
 11 32  1  0  0  0  0
 12 33  1  0  0  0  0
 13 15  1  0  0  0  0
 13 25  2  0  0  0  0
 14 25  1  0  0  0  0
 14 28  1  0  0  0  0
 15 27  1  0  0  0  0
 15 29  2  0  0  0  0
 16 17  1  0  0  0  0
 16 26  1  0  0  0  0
 16 30  2  0  0  0  0
 17 28  1  0  0  0  0
 17 31  2  0  0  0  0
 18 19  1  0  0  0  0
 18 20  1  0  0  0  0
 19 21  1  0  0  0  0
 20 26  1  0  0  0  0
 21 26  1  0  0  0  0
 22 28  1  0  0  0  0
 23 27  1  0  0  0  0
  1 34  1  0  0  0  0
  2 35  1  0  0  0  0
  3 36  1  0  0  0  0
  4 37  1  0  0  0  0
  5 38  1  0  0  0  0
  6 39  1  0  0  0  0
  7 40  1  0  0  0  0
 18 41  1  0  0  0  0
 18 42  1  0  0  0  0
 19 43  1  0  0  0  0
 19 44  1  0  0  0  0
 20 45  1  0  0  0  0
 20 46  1  0  0  0  0
 21 47  1  0  0  0  0
 21 48  1  0  0  0  0
 22 49  1  0  0  0  0
 22 50  1  0  0  0  0
 22 51  1  0  0  0  0
 23 52  1  0  0  0  0
 23 53  1  0  0  0  0
 27 54  1  0  0  0  0
 32 55  1  0  0  0  0
M  END
> <Hybrid2>
0.21462774276733398

> <Hybrid2>
0.214628

$$$$
CHEMBL209307
  -OEChem-02152218473D

 55 58  0     0  0  0  0  0  0999 V2000
    5.1509  -28.4492   -7.1659 C   0  0  0  0  0  0  0  0  0  0  0  0
    6.0016  -27.4073   -7.5038 C   0  0  0  0  0  0  0  0  0  0  0  0
   13.9958  -26.4308  -11.4394 C   0  0  0  0  0  0  0  0  0  0  0  0
   13.5279  -28.7348  -11.9959 C   0  0  0  0  0  0  0  0  0  0  0  0
   15.2190  -26.8124  -10.8881 C   0  0  0  0  0  0  0  0  0  0  0  0
   14.7511  -29.1164  -11.4447 C   0  0  0  0  0  0  0  0  0  0  0  0
    5.3277  -29.6549   -7.8162 C   0  0  0  0  0  0  0  0  0  0  0  0
    6.9940  -27.6047   -8.4739 C   0  0  0  0  0  0  0  0  0  0  0  0
   13.1502  -27.3920  -11.9933 C   0  0  0  0  0  0  0  0  0  0  0  0
    7.0994  -28.8676   -9.0832 C   0  0  0  0  0  0  0  0  0  0  0  0
    8.0890  -29.0421  -10.0410 C   0  0  0  0  0  0  0  0  0  0  0  0
   15.5966  -28.1551  -10.8908 C   0  0  0  0  0  0  0  0  0  0  0  0
    8.9260  -27.9808  -10.3581 C   0  0  0  0  0  0  0  0  0  0  0  0
    7.8835  -26.5999   -8.8622 C   0  0  0  0  0  0  0  0  0  0  0  0
    9.9751  -28.1262  -11.3566 C   0  0  0  0  0  0  0  0  0  0  0  0
    6.2360  -24.7132  -10.0470 C   0  0  0  0  0  0  0  0  0  0  0  0
    6.9692  -24.3123   -8.8299 C   0  0  0  0  0  0  0  0  0  0  0  0
    7.0801  -24.1230  -13.5704 C   0  0  0  0  0  0  0  0  0  0  0  0
    8.4711  -24.1274  -12.9516 C   0  0  0  0  0  0  0  0  0  0  0  0
    6.2433  -24.8372  -12.5209 C   0  0  0  0  0  0  0  0  0  0  0  0
    8.1896  -23.8981  -11.4730 C   0  0  0  0  0  0  0  0  0  0  0  0
    8.5716  -25.0111   -7.0270 C   0  0  0  0  0  0  0  0  0  0  0  0
   11.8339  -26.9819  -12.5875 C   0  0  0  0  0  0  0  0  0  0  0  0
    6.2744  -29.8808   -8.7571 N   0  0  0  0  0  0  0  0  0  0  0  0
    8.8486  -26.7601   -9.7914 N   0  0  0  0  0  0  0  0  0  0  0  0
    6.8698  -24.4877  -11.2532 N   0  0  0  0  0  0  0  0  0  0  0  0
   10.7694  -27.0026  -11.6102 N   0  0  0  0  0  0  0  0  0  0  0  0
    7.7942  -25.2864   -8.2467 N   0  0  0  0  0  0  0  0  0  0  0  0
   10.1266  -29.2030  -11.9591 O   0  0  0  0  0  0  0  0  0  0  0  0
    5.1183  -25.2141   -9.9277 O   0  0  0  0  0  0  0  0  0  0  0  0
    6.7909  -23.1638   -8.4292 O   0  0  0  0  0  0  0  0  0  0  0  0
    8.2357  -30.2457  -10.6639 O   0  0  0  0  0  0  0  0  0  0  0  0
   16.7724  -28.5213  -10.3638 F   0  0  0  0  0  0  0  0  0  0  0  0
    4.3764  -28.3215   -6.4190 H   0  0  0  0  0  0  0  0  0  0  0  0
    5.8735  -26.4532   -6.9994 H   0  0  0  0  0  0  0  0  0  0  0  0
   13.7099  -25.3823  -11.4320 H   0  0  0  0  0  0  0  0  0  0  0  0
   12.8757  -29.4907  -12.4256 H   0  0  0  0  0  0  0  0  0  0  0  0
   15.8776  -26.0641  -10.4575 H   0  0  0  0  0  0  0  0  0  0  0  0
   15.0452  -30.1617  -11.4462 H   0  0  0  0  0  0  0  0  0  0  0  0
    4.6917  -30.5052   -7.5919 H   0  0  0  0  0  0  0  0  0  0  0  0
    6.7272  -23.0935  -13.7024 H   0  0  0  0  0  0  0  0  0  0  0  0
    7.0543  -24.6272  -14.5404 H   0  0  0  0  0  0  0  0  0  0  0  0
    8.9471  -25.1040  -13.0992 H   0  0  0  0  0  0  0  0  0  0  0  0
    9.1193  -23.3569  -13.3782 H   0  0  0  0  0  0  0  0  0  0  0  0
    5.1909  -24.5386  -12.5299 H   0  0  0  0  0  0  0  0  0  0  0  0
    6.3017  -25.9257  -12.6312 H   0  0  0  0  0  0  0  0  0  0  0  0
    8.9364  -24.3601  -10.8210 H   0  0  0  0  0  0  0  0  0  0  0  0
    8.1208  -22.8301  -11.2387 H   0  0  0  0  0  0  0  0  0  0  0  0
    9.5606  -24.6165   -7.3031 H   0  0  0  0  0  0  0  0  0  0  0  0
    8.0396  -24.2697   -6.4128 H   0  0  0  0  0  0  0  0  0  0  0  0
    8.6954  -25.9415   -6.4534 H   0  0  0  0  0  0  0  0  0  0  0  0
   11.8948  -25.9682  -12.9984 H   0  0  0  0  0  0  0  0  0  0  0  0
   11.5482  -27.6487  -13.4078 H   0  0  0  0  0  0  0  0  0  0  0  0
   10.5619  -26.1301  -11.1352 H   0  0  0  0  0  0  0  0  0  0  0  0
    8.9655  -30.2055  -11.3013 H   0  0  0  0  0  0  0  0  0  0  0  0
  1  2  2  0  0  0  0
  1  7  1  0  0  0  0
  2  8  1  0  0  0  0
  3  5  2  0  0  0  0
  3  9  1  0  0  0  0
  4  6  1  0  0  0  0
  4  9  2  0  0  0  0
  5 12  1  0  0  0  0
  6 12  2  0  0  0  0
  7 24  2  0  0  0  0
  8 10  1  0  0  0  0
  8 14  2  0  0  0  0
  9 23  1  0  0  0  0
 10 11  2  0  0  0  0
 10 24  1  0  0  0  0
 11 13  1  0  0  0  0
 11 32  1  0  0  0  0
 12 33  1  0  0  0  0
 13 15  1  0  0  0  0
 13 25  2  0  0  0  0
 14 25  1  0  0  0  0
 14 28  1  0  0  0  0
 15 27  1  0  0  0  0
 15 29  2  0  0  0  0
 16 17  1  0  0  0  0
 16 26  1  0  0  0  0
 16 30  2  0  0  0  0
 17 28  1  0  0  0  0
 17 31  2  0  0  0  0
 18 19  1  0  0  0  0
 18 20  1  0  0  0  0
 19 21  1  0  0  0  0
 20 26  1  0  0  0  0
 21 26  1  0  0  0  0
 22 28  1  0  0  0  0
 23 27  1  0  0  0  0
  1 34  1  0  0  0  0
  2 35  1  0  0  0  0
  3 36  1  0  0  0  0
  4 37  1  0  0  0  0
  5 38  1  0  0  0  0
  6 39  1  0  0  0  0
  7 40  1  0  0  0  0
 18 41  1  0  0  0  0
 18 42  1  0  0  0  0
 19 43  1  0  0  0  0
 19 44  1  0  0  0  0
 20 45  1  0  0  0  0
 20 46  1  0  0  0  0
 21 47  1  0  0  0  0
 21 48  1  0  0  0  0
 22 49  1  0  0  0  0
 22 50  1  0  0  0  0
 22 51  1  0  0  0  0
 23 52  1  0  0  0  0
 23 53  1  0  0  0  0
 27 54  1  0  0  0  0
 32 55  1  0  0  0  0
M  END
> <Hybrid2>
0.21462774276733398

> <Hybrid2>
0.801535

$$$$
CHEMBL441683
  -OEChem-02152218473D

 51 54  0     0  0  0  0  0  0999 V2000
   15.1286  -27.8080  -10.9847 C   0  0  0  0  0  0  0  0  0  0  0  0
   14.0878  -27.3098  -11.7542 C   0  0  0  0  0  0  0  0  0  0  0  0
    5.2806  -27.9884  -10.0864 C   0  0  0  0  0  0  0  0  0  0  0  0
    6.0857  -27.3704   -7.8939 C   0  0  0  0  0  0  0  0  0  0  0  0
    4.6357  -29.0966   -9.5373 C   0  0  0  0  0  0  0  0  0  0  0  0
    5.4408  -28.4787   -7.3447 C   0  0  0  0  0  0  0  0  0  0  0  0
   14.8954  -27.9897   -9.6354 C   0  0  0  0  0  0  0  0  0  0  0  0
   12.8572  -27.0122  -11.1528 C   0  0  0  0  0  0  0  0  0  0  0  0
    6.0056  -27.1253   -9.2647 C   0  0  0  0  0  0  0  0  0  0  0  0
   12.7118  -27.2299   -9.7712 C   0  0  0  0  0  0  0  0  0  0  0  0
   11.4850  -26.9290   -9.1954 C   0  0  0  0  0  0  0  0  0  0  0  0
    4.7158  -29.3418   -8.1665 C   0  0  0  0  0  0  0  0  0  0  0  0
   10.4616  -26.4319   -9.9912 C   0  0  0  0  0  0  0  0  0  0  0  0
   11.7678  -26.5079  -11.8673 C   0  0  0  0  0  0  0  0  0  0  0  0
    9.1619  -26.1056   -9.4236 C   0  0  0  0  0  0  0  0  0  0  0  0
   11.7079  -24.9345  -13.7813 C   0  0  0  0  0  0  0  0  0  0  0  0
   11.5611  -27.3855  -14.1547 C   0  0  0  0  0  0  0  0  0  0  0  0
   12.3711  -24.8062  -15.1550 C   0  0  0  0  0  0  0  0  0  0  0  0
   12.2299  -27.1782  -15.5155 C   0  0  0  0  0  0  0  0  0  0  0  0
   12.5029  -25.6919  -17.3907 C   0  0  0  0  0  0  0  0  0  0  0  0
    6.6993  -25.9318   -9.8550 C   0  0  0  0  0  0  0  0  0  0  0  0
   13.7209  -27.7132   -9.0218 N   0  0  0  0  0  0  0  0  0  0  0  0
   10.5717  -26.2130  -11.3168 N   0  0  0  0  0  0  0  0  0  0  0  0
   11.8971  -26.2849  -13.2427 N   0  0  0  0  0  0  0  0  0  0  0  0
   11.9037  -25.8573  -16.0670 N   0  0  0  0  0  0  0  0  0  0  0  0
    8.0510  -26.2393  -10.2639 N   0  0  0  0  0  0  0  0  0  0  0  0
    9.0688  -25.7079   -8.2493 O   0  0  0  0  0  0  0  0  0  0  0  0
   11.2879  -27.1217   -7.8603 O   0  0  0  0  0  0  0  0  0  0  0  0
    4.0944  -30.4045   -7.6386 F   0  0  0  0  0  0  0  0  0  0  0  0
   16.0893  -28.0461  -11.4260 H   0  0  0  0  0  0  0  0  0  0  0  0
   14.2588  -27.1618  -12.8171 H   0  0  0  0  0  0  0  0  0  0  0  0
    5.2131  -27.8060  -11.1557 H   0  0  0  0  0  0  0  0  0  0  0  0
    6.6481  -26.7033   -7.2458 H   0  0  0  0  0  0  0  0  0  0  0  0
    4.0707  -29.7682  -10.1767 H   0  0  0  0  0  0  0  0  0  0  0  0
    5.5033  -28.6701   -6.2776 H   0  0  0  0  0  0  0  0  0  0  0  0
   15.6721  -28.3760   -8.9834 H   0  0  0  0  0  0  0  0  0  0  0  0
   12.1487  -24.1917  -13.1048 H   0  0  0  0  0  0  0  0  0  0  0  0
   10.6353  -24.7139  -13.8636 H   0  0  0  0  0  0  0  0  0  0  0  0
   10.4715  -27.4444  -14.2793 H   0  0  0  0  0  0  0  0  0  0  0  0
   11.8998  -28.3410  -13.7351 H   0  0  0  0  0  0  0  0  0  0  0  0
   12.1168  -23.8204  -15.5636 H   0  0  0  0  0  0  0  0  0  0  0  0
   13.4633  -24.8373  -15.0423 H   0  0  0  0  0  0  0  0  0  0  0  0
   13.3162  -27.3089  -15.4174 H   0  0  0  0  0  0  0  0  0  0  0  0
   11.8704  -27.9622  -16.1933 H   0  0  0  0  0  0  0  0  0  0  0  0
   12.1416  -26.4871  -18.0593 H   0  0  0  0  0  0  0  0  0  0  0  0
   12.2202  -24.7113  -17.8011 H   0  0  0  0  0  0  0  0  0  0  0  0
   13.5981  -25.7525  -17.3074 H   0  0  0  0  0  0  0  0  0  0  0  0
    6.1566  -25.5648  -10.7330 H   0  0  0  0  0  0  0  0  0  0  0  0
    6.7466  -25.1085   -9.1344 H   0  0  0  0  0  0  0  0  0  0  0  0
    8.1905  -26.5073  -11.2326 H   0  0  0  0  0  0  0  0  0  0  0  0
   12.0940  -27.4723   -7.4508 H   0  0  0  0  0  0  0  0  0  0  0  0
  1  2  2  0  0  0  0
  1  7  1  0  0  0  0
  2  8  1  0  0  0  0
  3  5  2  0  0  0  0
  3  9  1  0  0  0  0
  4  6  1  0  0  0  0
  4  9  2  0  0  0  0
  5 12  1  0  0  0  0
  6 12  2  0  0  0  0
  7 22  2  0  0  0  0
  8 10  1  0  0  0  0
  8 14  2  0  0  0  0
  9 21  1  0  0  0  0
 10 11  2  0  0  0  0
 10 22  1  0  0  0  0
 11 13  1  0  0  0  0
 11 28  1  0  0  0  0
 12 29  1  0  0  0  0
 13 15  1  0  0  0  0
 13 23  2  0  0  0  0
 14 23  1  0  0  0  0
 14 24  1  0  0  0  0
 15 26  1  0  0  0  0
 15 27  2  0  0  0  0
 16 18  1  0  0  0  0
 16 24  1  0  0  0  0
 17 19  1  0  0  0  0
 17 24  1  0  0  0  0
 18 25  1  0  0  0  0
 19 25  1  0  0  0  0
 20 25  1  0  0  0  0
 21 26  1  0  0  0  0
  1 30  1  0  0  0  0
  2 31  1  0  0  0  0
  3 32  1  0  0  0  0
  4 33  1  0  0  0  0
  5 34  1  0  0  0  0
  6 35  1  0  0  0  0
  7 36  1  0  0  0  0
 16 37  1  0  0  0  0
 16 38  1  0  0  0  0
 17 39  1  0  0  0  0
 17 40  1  0  0  0  0
 18 41  1  0  0  0  0
 18 42  1  0  0  0  0
 19 43  1  0  0  0  0
 19 44  1  0  0  0  0
 20 45  1  0  0  0  0
 20 46  1  0  0  0  0
 20 47  1  0  0  0  0
 21 48  1  0  0  0  0
 21 49  1  0  0  0  0
 26 50  1  0  0  0  0
 28 51  1  0  0  0  0
M  END
> <Hybrid2>
-3.124460458755493

> <Hybrid2>
-3.124460

$$$$
CHEMBL441683
  -OEChem-02152218473D

 51 54  0     0  0  0  0  0  0999 V2000
   14.7190  -27.3914  -11.9400 C   0  0  0  0  0  0  0  0  0  0  0  0
   13.5238  -26.8813  -12.4248 C   0  0  0  0  0  0  0  0  0  0  0  0
    4.8909  -26.8799  -10.0126 C   0  0  0  0  0  0  0  0  0  0  0  0
    5.9002  -27.6957   -7.9747 C   0  0  0  0  0  0  0  0  0  0  0  0
    4.0455  -27.9890  -10.0379 C   0  0  0  0  0  0  0  0  0  0  0  0
    5.0548  -28.8048   -8.0000 C   0  0  0  0  0  0  0  0  0  0  0  0
   14.7680  -27.7458  -10.6058 C   0  0  0  0  0  0  0  0  0  0  0  0
   12.4253  -26.7437  -11.5650 C   0  0  0  0  0  0  0  0  0  0  0  0
    5.8183  -26.7332   -8.9810 C   0  0  0  0  0  0  0  0  0  0  0  0
   12.5684  -27.1312  -10.2210 C   0  0  0  0  0  0  0  0  0  0  0  0
   11.4684  -26.9871   -9.3865 C   0  0  0  0  0  0  0  0  0  0  0  0
    4.1274  -28.9515   -9.0316 C   0  0  0  0  0  0  0  0  0  0  0  0
   10.2851  -26.4738   -9.9003 C   0  0  0  0  0  0  0  0  0  0  0  0
   11.1933  -26.2373  -11.9862 C   0  0  0  0  0  0  0  0  0  0  0  0
    9.1109  -26.3087   -9.0566 C   0  0  0  0  0  0  0  0  0  0  0  0
   10.6806  -24.4590  -13.6346 C   0  0  0  0  0  0  0  0  0  0  0  0
   10.5756  -26.8537  -14.2848 C   0  0  0  0  0  0  0  0  0  0  0  0
   11.0501  -24.1244  -15.0819 C   0  0  0  0  0  0  0  0  0  0  0  0
   10.9496  -26.4419  -15.7106 C   0  0  0  0  0  0  0  0  0  0  0  0
   10.7745  -24.7308  -17.3963 C   0  0  0  0  0  0  0  0  0  0  0  0
    6.7281  -25.5392   -8.9527 C   0  0  0  0  0  0  0  0  0  0  0  0
   13.7279  -27.6265   -9.7477 N   0  0  0  0  0  0  0  0  0  0  0  0
   10.1186  -26.0941  -11.1830 N   0  0  0  0  0  0  0  0  0  0  0  0
   11.0355  -25.8464  -13.3205 N   0  0  0  0  0  0  0  0  0  0  0  0
   10.4593  -25.0918  -16.0146 N   0  0  0  0  0  0  0  0  0  0  0  0
    7.9636  -25.7838   -9.6616 N   0  0  0  0  0  0  0  0  0  0  0  0
    9.1544  -26.6074   -7.8505 O   0  0  0  0  0  0  0  0  0  0  0  0
   11.5505  -27.3482   -8.0745 O   0  0  0  0  0  0  0  0  0  0  0  0
    3.3137  -30.0153   -9.0544 F   0  0  0  0  0  0  0  0  0  0  0  0
   15.5824  -27.5079  -12.5845 H   0  0  0  0  0  0  0  0  0  0  0  0
   13.4725  -26.5982  -13.4727 H   0  0  0  0  0  0  0  0  0  0  0  0
    4.8203  -26.1357  -10.8015 H   0  0  0  0  0  0  0  0  0  0  0  0
    6.6195  -27.5897   -7.1668 H   0  0  0  0  0  0  0  0  0  0  0  0
    3.3231  -28.1030  -10.8405 H   0  0  0  0  0  0  0  0  0  0  0  0
    5.1185  -29.5546   -7.2170 H   0  0  0  0  0  0  0  0  0  0  0  0
   15.6761  -28.1500  -10.1703 H   0  0  0  0  0  0  0  0  0  0  0  0
   11.2125  -23.7712  -12.9655 H   0  0  0  0  0  0  0  0  0  0  0  0
    9.6041  -24.3065  -13.4802 H   0  0  0  0  0  0  0  0  0  0  0  0
    9.4870  -26.9743  -14.2044 H   0  0  0  0  0  0  0  0  0  0  0  0
   11.0349  -27.8253  -14.0645 H   0  0  0  0  0  0  0  0  0  0  0  0
   10.6742  -23.1179  -15.3038 H   0  0  0  0  0  0  0  0  0  0  0  0
   12.1431  -24.0913  -15.1860 H   0  0  0  0  0  0  0  0  0  0  0  0
   12.0384  -26.5062  -15.8405 H   0  0  0  0  0  0  0  0  0  0  0  0
   10.4988  -27.1645  -16.4018 H   0  0  0  0  0  0  0  0  0  0  0  0
   10.3243  -25.4658  -18.0797 H   0  0  0  0  0  0  0  0  0  0  0  0
   10.3706  -23.7313  -17.6152 H   0  0  0  0  0  0  0  0  0  0  0  0
   11.8659  -24.7233  -17.5333 H   0  0  0  0  0  0  0  0  0  0  0  0
    6.2415  -24.6721   -9.4123 H   0  0  0  0  0  0  0  0  0  0  0  0
    6.9816  -25.2626   -7.9239 H   0  0  0  0  0  0  0  0  0  0  0  0
    8.0019  -25.4978  -10.6345 H   0  0  0  0  0  0  0  0  0  0  0  0
   12.4373  -27.6865   -7.8759 H   0  0  0  0  0  0  0  0  0  0  0  0
  1  2  2  0  0  0  0
  1  7  1  0  0  0  0
  2  8  1  0  0  0  0
  3  5  2  0  0  0  0
  3  9  1  0  0  0  0
  4  6  1  0  0  0  0
  4  9  2  0  0  0  0
  5 12  1  0  0  0  0
  6 12  2  0  0  0  0
  7 22  2  0  0  0  0
  8 10  1  0  0  0  0
  8 14  2  0  0  0  0
  9 21  1  0  0  0  0
 10 11  2  0  0  0  0
 10 22  1  0  0  0  0
 11 13  1  0  0  0  0
 11 28  1  0  0  0  0
 12 29  1  0  0  0  0
 13 15  1  0  0  0  0
 13 23  2  0  0  0  0
 14 23  1  0  0  0  0
 14 24  1  0  0  0  0
 15 26  1  0  0  0  0
 15 27  2  0  0  0  0
 16 18  1  0  0  0  0
 16 24  1  0  0  0  0
 17 19  1  0  0  0  0
 17 24  1  0  0  0  0
 18 25  1  0  0  0  0
 19 25  1  0  0  0  0
 20 25  1  0  0  0  0
 21 26  1  0  0  0  0
  1 30  1  0  0  0  0
  2 31  1  0  0  0  0
  3 32  1  0  0  0  0
  4 33  1  0  0  0  0
  5 34  1  0  0  0  0
  6 35  1  0  0  0  0
  7 36  1  0  0  0  0
 16 37  1  0  0  0  0
 16 38  1  0  0  0  0
 17 39  1  0  0  0  0
 17 40  1  0  0  0  0
 18 41  1  0  0  0  0
 18 42  1  0  0  0  0
 19 43  1  0  0  0  0
 19 44  1  0  0  0  0
 20 45  1  0  0  0  0
 20 46  1  0  0  0  0
 20 47  1  0  0  0  0
 21 48  1  0  0  0  0
 21 49  1  0  0  0  0
 26 50  1  0  0  0  0
 28 51  1  0  0  0  0
M  END
> <Hybrid2>
-3.124460458755493

> <Hybrid2>
-2.968429

$$$$
CHEMBL142072
  -OEChem-02152218473D

 42 45  0     0  0  0  0  0  0999 V2000
    7.1703  -31.7543   -7.9693 C   0  0  0  0  0  0  0  0  0  0  0  0
    7.9603  -31.0941   -8.9103 C   0  0  0  0  0  0  0  0  0  0  0  0
    5.7999  -31.5010   -7.9083 C   0  0  0  0  0  0  0  0  0  0  0  0
   13.9992  -27.4686  -11.5602 C   0  0  0  0  0  0  0  0  0  0  0  0
   13.2113  -27.5008  -10.4187 C   0  0  0  0  0  0  0  0  0  0  0  0
   11.1509  -26.8601   -9.2585 C   0  0  0  0  0  0  0  0  0  0  0  0
    9.9246  -26.2017   -9.2659 C   0  0  0  0  0  0  0  0  0  0  0  0
    7.3802  -30.1805   -9.7902 C   0  0  0  0  0  0  0  0  0  0  0  0
    5.2197  -30.5873   -8.7882 C   0  0  0  0  0  0  0  0  0  0  0  0
    4.5552  -26.7954   -9.6933 C   0  0  0  0  0  0  0  0  0  0  0  0
    6.8031  -26.8874  -10.5436 C   0  0  0  0  0  0  0  0  0  0  0  0
   13.5142  -26.7760  -12.6510 C   0  0  0  0  0  0  0  0  0  0  0  0
    4.7952  -25.4737   -9.3539 C   0  0  0  0  0  0  0  0  0  0  0  0
   11.9722  -26.8464  -10.3986 C   0  0  0  0  0  0  0  0  0  0  0  0
    9.5147  -25.5283  -10.4099 C   0  0  0  0  0  0  0  0  0  0  0  0
    6.0098  -29.9270   -9.7292 C   0  0  0  0  0  0  0  0  0  0  0  0
    5.5835  -27.5088  -10.2992 C   0  0  0  0  0  0  0  0  0  0  0  0
   11.5625  -26.1646  -11.5636 C   0  0  0  0  0  0  0  0  0  0  0  0
   10.3314  -25.5148  -11.5433 C   0  0  0  0  0  0  0  0  0  0  0  0
    6.9424  -25.5615  -10.1662 C   0  0  0  0  0  0  0  0  0  0  0  0
    8.2292  -24.8430  -10.4039 C   0  0  0  0  0  0  0  0  0  0  0  0
    5.3787  -28.9342  -10.6849 C   0  0  0  0  0  0  0  0  0  0  0  0
   12.3249  -26.1316  -12.6729 N   0  0  0  0  0  0  0  0  0  0  0  0
    5.9665  -24.8361   -9.5755 N   0  0  0  0  0  0  0  0  0  0  0  0
    8.1742  -23.6211  -10.6001 O   0  0  0  0  0  0  0  0  0  0  0  0
    9.9088  -24.8483  -12.6621 O   0  0  0  0  0  0  0  0  0  0  0  0
    7.6220  -32.4667   -7.2851 H   0  0  0  0  0  0  0  0  0  0  0  0
    9.0272  -31.2921   -8.9587 H   0  0  0  0  0  0  0  0  0  0  0  0
    5.1843  -32.0156   -7.1766 H   0  0  0  0  0  0  0  0  0  0  0  0
   14.9597  -27.9691  -11.5923 H   0  0  0  0  0  0  0  0  0  0  0  0
   13.5693  -28.0394   -9.5441 H   0  0  0  0  0  0  0  0  0  0  0  0
   11.4621  -27.3854   -8.3581 H   0  0  0  0  0  0  0  0  0  0  0  0
    9.3010  -26.2224   -8.3763 H   0  0  0  0  0  0  0  0  0  0  0  0
    8.0036  -29.6706  -10.5200 H   0  0  0  0  0  0  0  0  0  0  0  0
    4.1513  -30.3961   -8.7333 H   0  0  0  0  0  0  0  0  0  0  0  0
    3.5926  -27.2516   -9.4893 H   0  0  0  0  0  0  0  0  0  0  0  0
    7.6187  -27.4265  -11.0155 H   0  0  0  0  0  0  0  0  0  0  0  0
   14.0852  -26.7171  -13.5718 H   0  0  0  0  0  0  0  0  0  0  0  0
    4.0258  -24.8737   -8.8791 H   0  0  0  0  0  0  0  0  0  0  0  0
    5.7690  -29.1205  -11.7012 H   0  0  0  0  0  0  0  0  0  0  0  0
    4.3013  -29.1603  -10.7740 H   0  0  0  0  0  0  0  0  0  0  0  0
    9.0413  -24.4514  -12.4997 H   0  0  0  0  0  0  0  0  0  0  0  0
  1  2  1  0  0  0  0
  1  3  2  0  0  0  0
  2  8  2  0  0  0  0
  3  9  1  0  0  0  0
  4  5  2  0  0  0  0
  4 12  1  0  0  0  0
  5 14  1  0  0  0  0
  6  7  1  0  0  0  0
  6 14  2  0  0  0  0
  7 15  2  0  0  0  0
  8 16  1  0  0  0  0
  9 16  2  0  0  0  0
 10 13  2  0  0  0  0
 10 17  1  0  0  0  0
 11 17  2  0  0  0  0
 11 20  1  0  0  0  0
 12 23  2  0  0  0  0
 13 24  1  0  0  0  0
 14 18  1  0  0  0  0
 15 19  1  0  0  0  0
 15 21  1  0  0  0  0
 16 22  1  0  0  0  0
 17 22  1  0  0  0  0
 18 19  2  0  0  0  0
 18 23  1  0  0  0  0
 19 26  1  0  0  0  0
 20 21  1  0  0  0  0
 20 24  2  0  0  0  0
 21 25  2  0  0  0  0
  1 27  1  0  0  0  0
  2 28  1  0  0  0  0
  3 29  1  0  0  0  0
  4 30  1  0  0  0  0
  5 31  1  0  0  0  0
  6 32  1  0  0  0  0
  7 33  1  0  0  0  0
  8 34  1  0  0  0  0
  9 35  1  0  0  0  0
 10 36  1  0  0  0  0
 11 37  1  0  0  0  0
 12 38  1  0  0  0  0
 13 39  1  0  0  0  0
 22 40  1  0  0  0  0
 22 41  1  0  0  0  0
 26 42  1  0  0  0  0
M  END
> <Hybrid2>
-4.722107410430908

> <Hybrid2>
-4.722107

$$$$
CHEMBL142072
  -OEChem-02152218473D

 42 45  0     0  0  0  0  0  0999 V2000
    7.3154  -31.8694   -7.0850 C   0  0  0  0  0  0  0  0  0  0  0  0
    7.9955  -31.2732   -8.1468 C   0  0  0  0  0  0  0  0  0  0  0  0
    5.9305  -31.7383   -6.9822 C   0  0  0  0  0  0  0  0  0  0  0  0
   13.5270  -27.4985  -11.5801 C   0  0  0  0  0  0  0  0  0  0  0  0
   12.7952  -27.4478  -10.4025 C   0  0  0  0  0  0  0  0  0  0  0  0
   10.7323  -26.8488   -9.2248 C   0  0  0  0  0  0  0  0  0  0  0  0
    9.4474  -26.3140   -9.2510 C   0  0  0  0  0  0  0  0  0  0  0  0
    7.2908  -30.5458   -9.1059 C   0  0  0  0  0  0  0  0  0  0  0  0
    5.2257  -31.0109   -7.9413 C   0  0  0  0  0  0  0  0  0  0  0  0
    4.1503  -27.4558   -9.2995 C   0  0  0  0  0  0  0  0  0  0  0  0
    6.3582  -27.4540  -10.2530 C   0  0  0  0  0  0  0  0  0  0  0  0
   12.9299  -27.0090  -12.7241 C   0  0  0  0  0  0  0  0  0  0  0  0
    4.2720  -26.0837   -9.1506 C   0  0  0  0  0  0  0  0  0  0  0  0
   11.4992  -26.9144  -10.4004 C   0  0  0  0  0  0  0  0  0  0  0  0
    8.9247  -25.8438  -10.4492 C   0  0  0  0  0  0  0  0  0  0  0  0
    5.9059  -30.4146   -9.0032 C   0  0  0  0  0  0  0  0  0  0  0  0
    5.2178  -28.1467   -9.8620 C   0  0  0  0  0  0  0  0  0  0  0  0
   10.9749  -26.4388  -11.6206 C   0  0  0  0  0  0  0  0  0  0  0  0
    9.6873  -25.9093  -11.6180 C   0  0  0  0  0  0  0  0  0  0  0  0
    6.3810  -26.0819  -10.0617 C   0  0  0  0  0  0  0  0  0  0  0  0
    7.5789  -25.2863  -10.4626 C   0  0  0  0  0  0  0  0  0  0  0  0
    5.1395  -29.6241  -10.0449 C   0  0  0  0  0  0  0  0  0  0  0  0
   11.6828  -26.4867  -12.7649 N   0  0  0  0  0  0  0  0  0  0  0  0
    5.3637  -25.3764   -9.5185 N   0  0  0  0  0  0  0  0  0  0  0  0
    7.3945  -24.1129  -10.8144 O   0  0  0  0  0  0  0  0  0  0  0  0
    9.1538  -25.4436  -12.7897 O   0  0  0  0  0  0  0  0  0  0  0  0
    7.8641  -32.4369   -6.3390 H   0  0  0  0  0  0  0  0  0  0  0  0
    9.0737  -31.3761   -8.2276 H   0  0  0  0  0  0  0  0  0  0  0  0
    5.4005  -32.2033   -6.1563 H   0  0  0  0  0  0  0  0  0  0  0  0
   14.5303  -27.9074  -11.5991 H   0  0  0  0  0  0  0  0  0  0  0  0
   13.2416  -27.8266   -9.4858 H   0  0  0  0  0  0  0  0  0  0  0  0
   11.1318  -27.2152   -8.2816 H   0  0  0  0  0  0  0  0  0  0  0  0
    8.8671  -26.2710   -8.3333 H   0  0  0  0  0  0  0  0  0  0  0  0
    7.8291  -30.0845   -9.9298 H   0  0  0  0  0  0  0  0  0  0  0  0
    4.1469  -30.9139   -7.8531 H   0  0  0  0  0  0  0  0  0  0  0  0
    3.2472  -27.9672   -8.9843 H   0  0  0  0  0  0  0  0  0  0  0  0
    7.2026  -27.9744  -10.6942 H   0  0  0  0  0  0  0  0  0  0  0  0
   13.4529  -27.0234  -13.6748 H   0  0  0  0  0  0  0  0  0  0  0  0
    3.4676  -25.4986   -8.7171 H   0  0  0  0  0  0  0  0  0  0  0  0
    5.5030  -29.9102  -11.0478 H   0  0  0  0  0  0  0  0  0  0  0  0
    4.0871  -29.9592  -10.0438 H   0  0  0  0  0  0  0  0  0  0  0  0
    8.2588  -25.1104  -12.6333 H   0  0  0  0  0  0  0  0  0  0  0  0
  1  2  1  0  0  0  0
  1  3  2  0  0  0  0
  2  8  2  0  0  0  0
  3  9  1  0  0  0  0
  4  5  2  0  0  0  0
  4 12  1  0  0  0  0
  5 14  1  0  0  0  0
  6  7  1  0  0  0  0
  6 14  2  0  0  0  0
  7 15  2  0  0  0  0
  8 16  1  0  0  0  0
  9 16  2  0  0  0  0
 10 13  2  0  0  0  0
 10 17  1  0  0  0  0
 11 17  2  0  0  0  0
 11 20  1  0  0  0  0
 12 23  2  0  0  0  0
 13 24  1  0  0  0  0
 14 18  1  0  0  0  0
 15 19  1  0  0  0  0
 15 21  1  0  0  0  0
 16 22  1  0  0  0  0
 17 22  1  0  0  0  0
 18 19  2  0  0  0  0
 18 23  1  0  0  0  0
 19 26  1  0  0  0  0
 20 21  1  0  0  0  0
 20 24  2  0  0  0  0
 21 25  2  0  0  0  0
  1 27  1  0  0  0  0
  2 28  1  0  0  0  0
  3 29  1  0  0  0  0
  4 30  1  0  0  0  0
  5 31  1  0  0  0  0
  6 32  1  0  0  0  0
  7 33  1  0  0  0  0
  8 34  1  0  0  0  0
  9 35  1  0  0  0  0
 10 36  1  0  0  0  0
 11 37  1  0  0  0  0
 12 38  1  0  0  0  0
 13 39  1  0  0  0  0
 22 40  1  0  0  0  0
 22 41  1  0  0  0  0
 26 42  1  0  0  0  0
M  END
> <Hybrid2>
-4.722107410430908

> <Hybrid2>
-4.541774

$$$$
CHEMBL386515
  -OEChem-02152218473D

 46 47  0     0  0  0  0  0  0999 V2000
   12.4713  -26.0029   -9.7491 C   0  0  0  0  0  0  0  0  0  0  0  0
   11.9233  -26.5925  -12.0271 C   0  0  0  0  0  0  0  0  0  0  0  0
   13.6264  -26.7810   -9.8256 C   0  0  0  0  0  0  0  0  0  0  0  0
   13.0785  -27.3705  -12.1036 C   0  0  0  0  0  0  0  0  0  0  0  0
   11.6197  -25.9087  -10.8499 C   0  0  0  0  0  0  0  0  0  0  0  0
    5.6365  -25.7342   -9.4312 C   0  0  0  0  0  0  0  0  0  0  0  0
   13.9300  -27.4648  -11.0028 C   0  0  0  0  0  0  0  0  0  0  0  0
    6.9278  -26.1793   -9.6278 C   0  0  0  0  0  0  0  0  0  0  0  0
    4.7480  -26.6738   -8.9493 C   0  0  0  0  0  0  0  0  0  0  0  0
    6.3725  -28.2633   -8.9098 C   0  0  0  0  0  0  0  0  0  0  0  0
    7.9617  -25.2893  -10.1328 C   0  0  0  0  0  0  0  0  0  0  0  0
    8.2750  -29.7548   -8.1942 C   0  0  0  0  0  0  0  0  0  0  0  0
    5.9270  -30.2914   -7.4795 C   0  0  0  0  0  0  0  0  0  0  0  0
    7.4595  -30.0977  -10.8865 C   0  0  0  0  0  0  0  0  0  0  0  0
    5.2323  -30.6511  -10.1756 C   0  0  0  0  0  0  0  0  0  0  0  0
   10.3765  -25.0708  -10.7685 C   0  0  0  0  0  0  0  0  0  0  0  0
    6.7934  -29.7084   -8.6112 C   0  0  0  0  0  0  0  0  0  0  0  0
    7.3320  -27.4418   -9.3767 N   0  0  0  0  0  0  0  0  0  0  0  0
    5.0832  -27.9520   -8.6768 N   0  0  0  0  0  0  0  0  0  0  0  0
    9.2410  -25.8318  -10.2992 N   0  0  0  0  0  0  0  0  0  0  0  0
    6.6378  -30.5753   -9.7729 N   0  0  0  0  0  0  0  0  0  0  0  0
    7.7036  -24.0979  -10.3791 O   0  0  0  0  0  0  0  0  0  0  0  0
    5.2601  -24.4605   -9.6920 O   0  0  0  0  0  0  0  0  0  0  0  0
    3.4433  -26.3210   -8.7241 O   0  0  0  0  0  0  0  0  0  0  0  0
   15.0407  -28.2098  -11.0773 F   0  0  0  0  0  0  0  0  0  0  0  0
   12.2426  -25.4744   -8.8274 H   0  0  0  0  0  0  0  0  0  0  0  0
   11.2659  -26.5247  -12.8900 H   0  0  0  0  0  0  0  0  0  0  0  0
   14.2897  -26.8539   -8.9690 H   0  0  0  0  0  0  0  0  0  0  0  0
   13.3150  -27.9034  -13.0198 H   0  0  0  0  0  0  0  0  0  0  0  0
    8.5904  -30.7826   -7.9773 H   0  0  0  0  0  0  0  0  0  0  0  0
    8.9230  -29.3790   -8.9955 H   0  0  0  0  0  0  0  0  0  0  0  0
    8.4743  -29.1557   -7.2991 H   0  0  0  0  0  0  0  0  0  0  0  0
    6.2169  -31.3250   -7.2550 H   0  0  0  0  0  0  0  0  0  0  0  0
    4.8669  -30.3058   -7.7608 H   0  0  0  0  0  0  0  0  0  0  0  0
    6.0148  -29.7178   -6.5504 H   0  0  0  0  0  0  0  0  0  0  0  0
    8.5119  -30.0456  -10.5705 H   0  0  0  0  0  0  0  0  0  0  0  0
    7.3656  -30.7912  -11.7352 H   0  0  0  0  0  0  0  0  0  0  0  0
    7.1184  -29.0972  -11.1911 H   0  0  0  0  0  0  0  0  0  0  0  0
    4.6271  -31.0109   -9.3304 H   0  0  0  0  0  0  0  0  0  0  0  0
    4.8832  -29.6527  -10.4776 H   0  0  0  0  0  0  0  0  0  0  0  0
    5.1304  -31.3466  -11.0217 H   0  0  0  0  0  0  0  0  0  0  0  0
   10.5233  -24.2276  -10.0847 H   0  0  0  0  0  0  0  0  0  0  0  0
   10.1186  -24.6542  -11.7479 H   0  0  0  0  0  0  0  0  0  0  0  0
    9.4121  -26.7933  -10.0233 H   0  0  0  0  0  0  0  0  0  0  0  0
    4.3160  -24.3333   -9.4932 H   0  0  0  0  0  0  0  0  0  0  0  0
    2.9511  -27.0837   -8.3897 H   0  0  0  0  0  0  0  0  0  0  0  0
  1  3  2  0  0  0  0
  1  5  1  0  0  0  0
  2  4  1  0  0  0  0
  2  5  2  0  0  0  0
  3  7  1  0  0  0  0
  4  7  2  0  0  0  0
  5 16  1  0  0  0  0
  6  8  2  0  0  0  0
  6  9  1  0  0  0  0
  6 23  1  0  0  0  0
  7 25  1  0  0  0  0
  8 11  1  0  0  0  0
  8 18  1  0  0  0  0
  9 19  2  0  0  0  0
  9 24  1  0  0  0  0
 10 17  1  0  0  0  0
 10 18  2  0  0  0  0
 10 19  1  0  0  0  0
 11 20  1  0  0  0  0
 11 22  2  0  0  0  0
 12 17  1  0  0  0  0
 13 17  1  0  0  0  0
 14 21  1  0  0  0  0
 15 21  1  0  0  0  0
 16 20  1  0  0  0  0
 17 21  1  0  0  0  0
  1 26  1  0  0  0  0
  2 27  1  0  0  0  0
  3 28  1  0  0  0  0
  4 29  1  0  0  0  0
 12 30  1  0  0  0  0
 12 31  1  0  0  0  0
 12 32  1  0  0  0  0
 13 33  1  0  0  0  0
 13 34  1  0  0  0  0
 13 35  1  0  0  0  0
 14 36  1  0  0  0  0
 14 37  1  0  0  0  0
 14 38  1  0  0  0  0
 15 39  1  0  0  0  0
 15 40  1  0  0  0  0
 15 41  1  0  0  0  0
 16 42  1  0  0  0  0
 16 43  1  0  0  0  0
 20 44  1  0  0  0  0
 23 45  1  0  0  0  0
 24 46  1  0  0  0  0
M  END
> <Hybrid2>
-2.1097824573516846

> <Hybrid2>
-2.109782

$$$$
CHEMBL386515
  -OEChem-02152218473D

 46 47  0     0  0  0  0  0  0999 V2000
   13.0670  -26.7225   -8.9544 C   0  0  0  0  0  0  0  0  0  0  0  0
   12.6838  -26.4833  -11.3278 C   0  0  0  0  0  0  0  0  0  0  0  0
   14.1180  -27.6024   -9.2128 C   0  0  0  0  0  0  0  0  0  0  0  0
   13.7349  -27.3632  -11.5862 C   0  0  0  0  0  0  0  0  0  0  0  0
   12.3498  -26.1630  -10.0120 C   0  0  0  0  0  0  0  0  0  0  0  0
    6.3221  -25.5418   -8.9525 C   0  0  0  0  0  0  0  0  0  0  0  0
   14.4520  -27.9227  -10.5286 C   0  0  0  0  0  0  0  0  0  0  0  0
    7.5612  -26.0923   -9.2092 C   0  0  0  0  0  0  0  0  0  0  0  0
    5.2793  -26.4399   -8.8506 C   0  0  0  0  0  0  0  0  0  0  0  0
    6.6808  -28.1878   -9.2350 C   0  0  0  0  0  0  0  0  0  0  0  0
    8.7437  -25.2553   -9.3406 C   0  0  0  0  0  0  0  0  0  0  0  0
    5.6138  -30.3506   -9.9696 C   0  0  0  0  0  0  0  0  0  0  0  0
    8.0707  -29.9783  -10.3393 C   0  0  0  0  0  0  0  0  0  0  0  0
    6.0747  -30.1537   -7.1803 C   0  0  0  0  0  0  0  0  0  0  0  0
    8.4270  -29.8437   -7.5580 C   0  0  0  0  0  0  0  0  0  0  0  0
   11.2189  -25.2153   -9.7346 C   0  0  0  0  0  0  0  0  0  0  0  0
    6.8860  -29.7000   -9.3958 C   0  0  0  0  0  0  0  0  0  0  0  0
    7.7775  -27.4158   -9.3567 N   0  0  0  0  0  0  0  0  0  0  0  0
    5.4234  -27.7744   -8.9870 N   0  0  0  0  0  0  0  0  0  0  0  0
    9.9558  -25.9049   -9.6010 N   0  0  0  0  0  0  0  0  0  0  0  0
    7.1761  -30.3516   -8.1244 N   0  0  0  0  0  0  0  0  0  0  0  0
    8.6622  -24.0220   -9.2033 O   0  0  0  0  0  0  0  0  0  0  0  0
    6.1356  -24.2089   -8.8089 O   0  0  0  0  0  0  0  0  0  0  0  0
    4.0126  -25.9829   -8.5975 O   0  0  0  0  0  0  0  0  0  0  0  0
   15.4630  -28.7655  -10.7769 F   0  0  0  0  0  0  0  0  0  0  0  0
   12.8136  -26.4795   -7.9258 H   0  0  0  0  0  0  0  0  0  0  0  0
   12.1308  -26.0520  -12.1582 H   0  0  0  0  0  0  0  0  0  0  0  0
   14.6768  -28.0374   -8.3897 H   0  0  0  0  0  0  0  0  0  0  0  0
   13.9949  -27.6131  -12.6105 H   0  0  0  0  0  0  0  0  0  0  0  0
    5.7457  -31.4327  -10.0902 H   0  0  0  0  0  0  0  0  0  0  0  0
    4.7572  -30.2009   -9.3008 H   0  0  0  0  0  0  0  0  0  0  0  0
    5.3435  -29.9428  -10.9497 H   0  0  0  0  0  0  0  0  0  0  0  0
    8.2293  -31.0564  -10.4638 H   0  0  0  0  0  0  0  0  0  0  0  0
    9.0016  -29.5578   -9.9396 H   0  0  0  0  0  0  0  0  0  0  0  0
    7.9172  -29.5529  -11.3370 H   0  0  0  0  0  0  0  0  0  0  0  0
    5.1421  -30.5392   -7.6181 H   0  0  0  0  0  0  0  0  0  0  0  0
    6.2913  -30.6927   -6.2462 H   0  0  0  0  0  0  0  0  0  0  0  0
    5.9631  -29.0804   -6.9670 H   0  0  0  0  0  0  0  0  0  0  0  0
    9.2451  -29.9986   -8.2769 H   0  0  0  0  0  0  0  0  0  0  0  0
    8.3239  -28.7693   -7.3460 H   0  0  0  0  0  0  0  0  0  0  0  0
    8.6521  -30.3816   -6.6252 H   0  0  0  0  0  0  0  0  0  0  0  0
   11.3994  -24.6594   -8.8081 H   0  0  0  0  0  0  0  0  0  0  0  0
   11.1155  -24.4804  -10.5399 H   0  0  0  0  0  0  0  0  0  0  0  0
    9.9769  -26.9186   -9.6411 H   0  0  0  0  0  0  0  0  0  0  0  0
    5.1995  -24.0095   -8.6332 H   0  0  0  0  0  0  0  0  0  0  0  0
    3.3980  -26.7287   -8.5556 H   0  0  0  0  0  0  0  0  0  0  0  0
  1  3  2  0  0  0  0
  1  5  1  0  0  0  0
  2  4  1  0  0  0  0
  2  5  2  0  0  0  0
  3  7  1  0  0  0  0
  4  7  2  0  0  0  0
  5 16  1  0  0  0  0
  6  8  2  0  0  0  0
  6  9  1  0  0  0  0
  6 23  1  0  0  0  0
  7 25  1  0  0  0  0
  8 11  1  0  0  0  0
  8 18  1  0  0  0  0
  9 19  2  0  0  0  0
  9 24  1  0  0  0  0
 10 17  1  0  0  0  0
 10 18  2  0  0  0  0
 10 19  1  0  0  0  0
 11 20  1  0  0  0  0
 11 22  2  0  0  0  0
 12 17  1  0  0  0  0
 13 17  1  0  0  0  0
 14 21  1  0  0  0  0
 15 21  1  0  0  0  0
 16 20  1  0  0  0  0
 17 21  1  0  0  0  0
  1 26  1  0  0  0  0
  2 27  1  0  0  0  0
  3 28  1  0  0  0  0
  4 29  1  0  0  0  0
 12 30  1  0  0  0  0
 12 31  1  0  0  0  0
 12 32  1  0  0  0  0
 13 33  1  0  0  0  0
 13 34  1  0  0  0  0
 13 35  1  0  0  0  0
 14 36  1  0  0  0  0
 14 37  1  0  0  0  0
 14 38  1  0  0  0  0
 15 39  1  0  0  0  0
 15 40  1  0  0  0  0
 15 41  1  0  0  0  0
 16 42  1  0  0  0  0
 16 43  1  0  0  0  0
 20 44  1  0  0  0  0
 23 45  1  0  0  0  0
 24 46  1  0  0  0  0
M  END
> <Hybrid2>
-2.1097824573516846

> <Hybrid2>
-2.095383

$$$$
CHEMBL217020
  -OEChem-02152218473D

 42 44  0     0  0  0  0  0  0999 V2000
   13.9265  -27.1902  -11.1924 C   0  0  0  0  0  0  0  0  0  0  0  0
   13.3566  -26.1220  -11.8851 C   0  0  0  0  0  0  0  0  0  0  0  0
   13.1478  -28.2968  -10.8537 C   0  0  0  0  0  0  0  0  0  0  0  0
   12.0079  -26.1603  -12.2389 C   0  0  0  0  0  0  0  0  0  0  0  0
   11.7991  -28.3351  -11.2075 C   0  0  0  0  0  0  0  0  0  0  0  0
    3.6460  -29.0854   -8.0129 C   0  0  0  0  0  0  0  0  0  0  0  0
    4.7685  -31.0153   -8.9365 C   0  0  0  0  0  0  0  0  0  0  0  0
    2.4338  -29.5435   -8.5289 C   0  0  0  0  0  0  0  0  0  0  0  0
    3.5562  -31.4734   -9.4524 C   0  0  0  0  0  0  0  0  0  0  0  0
   11.2291  -27.2669  -11.9001 C   0  0  0  0  0  0  0  0  0  0  0  0
    4.8134  -29.8213   -8.2167 C   0  0  0  0  0  0  0  0  0  0  0  0
    7.3066  -25.0009   -9.7943 C   0  0  0  0  0  0  0  0  0  0  0  0
    2.3889  -30.7375   -9.2486 C   0  0  0  0  0  0  0  0  0  0  0  0
    7.4067  -26.3711   -9.6644 C   0  0  0  0  0  0  0  0  0  0  0  0
    8.0748  -24.4381  -10.7930 C   0  0  0  0  0  0  0  0  0  0  0  0
    8.8924  -26.4758  -11.3816 C   0  0  0  0  0  0  0  0  0  0  0  0
    6.6497  -27.0880   -8.6500 C   0  0  0  0  0  0  0  0  0  0  0  0
    9.7869  -27.3084  -12.2779 C   0  0  0  0  0  0  0  0  0  0  0  0
    6.1184  -29.3292   -7.6610 C   0  0  0  0  0  0  0  0  0  0  0  0
    8.1926  -27.1425  -10.4439 N   0  0  0  0  0  0  0  0  0  0  0  0
    8.8820  -25.1483  -11.6081 N   0  0  0  0  0  0  0  0  0  0  0  0
    6.8171  -28.4764   -8.5956 N   0  0  0  0  0  0  0  0  0  0  0  0
    5.8783  -26.4773   -7.8893 O   0  0  0  0  0  0  0  0  0  0  0  0
    6.5087  -24.2526   -8.9971 O   0  0  0  0  0  0  0  0  0  0  0  0
    8.0390  -23.0833  -10.9945 O   0  0  0  0  0  0  0  0  0  0  0  0
    1.2244  -31.1789   -9.7419 F   0  0  0  0  0  0  0  0  0  0  0  0
   14.9770  -27.1608  -10.9182 H   0  0  0  0  0  0  0  0  0  0  0  0
   13.9630  -25.2608  -12.1499 H   0  0  0  0  0  0  0  0  0  0  0  0
   13.5914  -29.1291  -10.3154 H   0  0  0  0  0  0  0  0  0  0  0  0
   11.5723  -25.3234  -12.7783 H   0  0  0  0  0  0  0  0  0  0  0  0
   11.2000  -29.2013  -10.9392 H   0  0  0  0  0  0  0  0  0  0  0  0
    3.6712  -28.1536   -7.4541 H   0  0  0  0  0  0  0  0  0  0  0  0
    5.6729  -31.5955   -9.1000 H   0  0  0  0  0  0  0  0  0  0  0  0
    1.5249  -28.9712   -8.3697 H   0  0  0  0  0  0  0  0  0  0  0  0
    3.5209  -32.4027  -10.0132 H   0  0  0  0  0  0  0  0  0  0  0  0
    9.6512  -26.9787  -13.3230 H   0  0  0  0  0  0  0  0  0  0  0  0
    9.4178  -28.3491  -12.2825 H   0  0  0  0  0  0  0  0  0  0  0  0
    5.9553  -28.7582   -6.7404 H   0  0  0  0  0  0  0  0  0  0  0  0
    6.7799  -30.1656   -7.4119 H   0  0  0  0  0  0  0  0  0  0  0  0
    7.4109  -28.9319   -9.2809 H   0  0  0  0  0  0  0  0  0  0  0  0
    6.5686  -23.3113   -9.2367 H   0  0  0  0  0  0  0  0  0  0  0  0
    8.6273  -22.8454  -11.7247 H   0  0  0  0  0  0  0  0  0  0  0  0
  1  2  1  0  0  0  0
  1  3  2  0  0  0  0
  2  4  2  0  0  0  0
  3  5  1  0  0  0  0
  4 10  1  0  0  0  0
  5 10  2  0  0  0  0
  6  8  2  0  0  0  0
  6 11  1  0  0  0  0
  7  9  1  0  0  0  0
  7 11  2  0  0  0  0
  8 13  1  0  0  0  0
  9 13  2  0  0  0  0
 10 18  1  0  0  0  0
 11 19  1  0  0  0  0
 12 14  1  0  0  0  0
 12 15  2  0  0  0  0
 12 24  1  0  0  0  0
 13 26  1  0  0  0  0
 14 17  1  0  0  0  0
 14 20  2  0  0  0  0
 15 21  1  0  0  0  0
 15 25  1  0  0  0  0
 16 18  1  0  0  0  0
 16 20  1  0  0  0  0
 16 21  2  0  0  0  0
 17 22  1  0  0  0  0
 17 23  2  0  0  0  0
 19 22  1  0  0  0  0
  1 27  1  0  0  0  0
  2 28  1  0  0  0  0
  3 29  1  0  0  0  0
  4 30  1  0  0  0  0
  5 31  1  0  0  0  0
  6 32  1  0  0  0  0
  7 33  1  0  0  0  0
  8 34  1  0  0  0  0
  9 35  1  0  0  0  0
 18 36  1  0  0  0  0
 18 37  1  0  0  0  0
 19 38  1  0  0  0  0
 19 39  1  0  0  0  0
 22 40  1  0  0  0  0
 24 41  1  0  0  0  0
 25 42  1  0  0  0  0
M  END
> <Hybrid2>
-3.862063407897949

> <Hybrid2>
-3.862063

$$$$
CHEMBL217020
  -OEChem-02152218473D

 42 44  0     0  0  0  0  0  0999 V2000
    4.6548  -30.6637  -10.1887 C   0  0  0  0  0  0  0  0  0  0  0  0
    3.9443  -29.5505   -9.7397 C   0  0  0  0  0  0  0  0  0  0  0  0
    5.9767  -30.8560   -9.7868 C   0  0  0  0  0  0  0  0  0  0  0  0
    4.5556  -28.6297   -8.8888 C   0  0  0  0  0  0  0  0  0  0  0  0
    6.5880  -29.9352   -8.9360 C   0  0  0  0  0  0  0  0  0  0  0  0
   12.6016  -26.2625  -12.0196 C   0  0  0  0  0  0  0  0  0  0  0  0
   12.3516  -28.6149  -11.5289 C   0  0  0  0  0  0  0  0  0  0  0  0
   13.9275  -26.3137  -11.5896 C   0  0  0  0  0  0  0  0  0  0  0  0
   13.6776  -28.6661  -11.0990 C   0  0  0  0  0  0  0  0  0  0  0  0
    5.8775  -28.8220   -8.4869 C   0  0  0  0  0  0  0  0  0  0  0  0
   11.8136  -27.4131  -11.9892 C   0  0  0  0  0  0  0  0  0  0  0  0
    7.7936  -24.3204   -9.4960 C   0  0  0  0  0  0  0  0  0  0  0  0
   14.4655  -27.5155  -11.1293 C   0  0  0  0  0  0  0  0  0  0  0  0
    8.2095  -25.5708   -9.9056 C   0  0  0  0  0  0  0  0  0  0  0  0
    6.9358  -24.3008   -8.4152 C   0  0  0  0  0  0  0  0  0  0  0  0
    6.9866  -26.5687   -8.2698 C   0  0  0  0  0  0  0  0  0  0  0  0
    9.1141  -25.7309  -11.0335 C   0  0  0  0  0  0  0  0  0  0  0  0
    6.5318  -27.8376   -7.5773 C   0  0  0  0  0  0  0  0  0  0  0  0
   10.3865  -27.3589  -12.4526 C   0  0  0  0  0  0  0  0  0  0  0  0
    7.8243  -26.7202   -9.3132 N   0  0  0  0  0  0  0  0  0  0  0  0
    6.5102  -25.4100   -7.7758 N   0  0  0  0  0  0  0  0  0  0  0  0
    9.4795  -27.0383  -11.3740 N   0  0  0  0  0  0  0  0  0  0  0  0
    9.5477  -24.7359  -11.6407 O   0  0  0  0  0  0  0  0  0  0  0  0
    8.1975  -23.1839  -10.1103 O   0  0  0  0  0  0  0  0  0  0  0  0
    6.4709  -23.1028   -7.9397 O   0  0  0  0  0  0  0  0  0  0  0  0
   15.7396  -27.5654  -10.7189 F   0  0  0  0  0  0  0  0  0  0  0  0
    4.1783  -31.3813  -10.8502 H   0  0  0  0  0  0  0  0  0  0  0  0
    2.9147  -29.4012  -10.0516 H   0  0  0  0  0  0  0  0  0  0  0  0
    6.5298  -31.7232  -10.1354 H   0  0  0  0  0  0  0  0  0  0  0  0
    3.9944  -27.7652   -8.5441 H   0  0  0  0  0  0  0  0  0  0  0  0
    7.6182  -30.0932   -8.6282 H   0  0  0  0  0  0  0  0  0  0  0  0
   12.1910  -25.3214  -12.3758 H   0  0  0  0  0  0  0  0  0  0  0  0
   11.7453  -29.5166  -11.5019 H   0  0  0  0  0  0  0  0  0  0  0  0
   14.5412  -25.4182  -11.6138 H   0  0  0  0  0  0  0  0  0  0  0  0
   14.0967  -29.6015  -10.7402 H   0  0  0  0  0  0  0  0  0  0  0  0
    5.8547  -27.5684   -6.7476 H   0  0  0  0  0  0  0  0  0  0  0  0
    7.3980  -28.2967   -7.0690 H   0  0  0  0  0  0  0  0  0  0  0  0
   10.2628  -26.6010  -13.2338 H   0  0  0  0  0  0  0  0  0  0  0  0
   10.0748  -28.3185  -12.8781 H   0  0  0  0  0  0  0  0  0  0  0  0
    9.1466  -27.8105  -10.8060 H   0  0  0  0  0  0  0  0  0  0  0  0
    7.8025  -22.4034   -9.6838 H   0  0  0  0  0  0  0  0  0  0  0  0
    5.8846  -23.2554   -7.1856 H   0  0  0  0  0  0  0  0  0  0  0  0
  1  2  1  0  0  0  0
  1  3  2  0  0  0  0
  2  4  2  0  0  0  0
  3  5  1  0  0  0  0
  4 10  1  0  0  0  0
  5 10  2  0  0  0  0
  6  8  2  0  0  0  0
  6 11  1  0  0  0  0
  7  9  1  0  0  0  0
  7 11  2  0  0  0  0
  8 13  1  0  0  0  0
  9 13  2  0  0  0  0
 10 18  1  0  0  0  0
 11 19  1  0  0  0  0
 12 14  1  0  0  0  0
 12 15  2  0  0  0  0
 12 24  1  0  0  0  0
 13 26  1  0  0  0  0
 14 17  1  0  0  0  0
 14 20  2  0  0  0  0
 15 21  1  0  0  0  0
 15 25  1  0  0  0  0
 16 18  1  0  0  0  0
 16 20  1  0  0  0  0
 16 21  2  0  0  0  0
 17 22  1  0  0  0  0
 17 23  2  0  0  0  0
 19 22  1  0  0  0  0
  1 27  1  0  0  0  0
  2 28  1  0  0  0  0
  3 29  1  0  0  0  0
  4 30  1  0  0  0  0
  5 31  1  0  0  0  0
  6 32  1  0  0  0  0
  7 33  1  0  0  0  0
  8 34  1  0  0  0  0
  9 35  1  0  0  0  0
 18 36  1  0  0  0  0
 18 37  1  0  0  0  0
 19 38  1  0  0  0  0
 19 39  1  0  0  0  0
 22 40  1  0  0  0  0
 24 41  1  0  0  0  0
 25 42  1  0  0  0  0
M  END
> <Hybrid2>
-3.862063407897949

> <Hybrid2>
-3.567704

$$$$
CHEMBL320261
  -OEChem-02152218473D

 50 52  0     0  0  0  0  0  0999 V2000
    5.7705  -19.7408   -9.8040 C   0  0  0  0  0  0  0  0  0  0  0  0
   15.2933  -27.9027  -10.8049 C   0  0  0  0  0  0  0  0  0  0  0  0
    5.8504  -20.4852  -10.9809 C   0  0  0  0  0  0  0  0  0  0  0  0
    6.3421  -20.2296   -8.6293 C   0  0  0  0  0  0  0  0  0  0  0  0
   14.8904  -27.5493   -9.5171 C   0  0  0  0  0  0  0  0  0  0  0  0
   14.3944  -27.8089  -11.8674 C   0  0  0  0  0  0  0  0  0  0  0  0
    6.5019  -21.7186  -10.9830 C   0  0  0  0  0  0  0  0  0  0  0  0
    6.9935  -21.4630   -8.6314 C   0  0  0  0  0  0  0  0  0  0  0  0
   13.5885  -27.1021   -9.2918 C   0  0  0  0  0  0  0  0  0  0  0  0
   13.0925  -27.3617  -11.6420 C   0  0  0  0  0  0  0  0  0  0  0  0
    6.4339  -26.8846   -9.1347 C   0  0  0  0  0  0  0  0  0  0  0  0
    8.2692  -28.4478   -9.2937 C   0  0  0  0  0  0  0  0  0  0  0  0
    8.6545  -26.0911   -9.6605 C   0  0  0  0  0  0  0  0  0  0  0  0
    6.9172  -28.1912   -9.0655 C   0  0  0  0  0  0  0  0  0  0  0  0
    7.0735  -22.2075   -9.8083 C   0  0  0  0  0  0  0  0  0  0  0  0
   12.6896  -27.0083  -10.3542 C   0  0  0  0  0  0  0  0  0  0  0  0
    7.3026  -25.8345   -9.4323 C   0  0  0  0  0  0  0  0  0  0  0  0
    9.1378  -27.3977   -9.5912 C   0  0  0  0  0  0  0  0  0  0  0  0
    4.6995  -29.2623   -9.0998 C   0  0  0  0  0  0  0  0  0  0  0  0
    6.0122  -29.2876   -8.7585 C   0  0  0  0  0  0  0  0  0  0  0  0
    3.7398  -30.3526   -8.8015 C   0  0  0  0  0  0  0  0  0  0  0  0
    2.3162  -29.9381   -8.5943 C   0  0  0  0  0  0  0  0  0  0  0  0
    7.7742  -23.5344   -9.8098 C   0  0  0  0  0  0  0  0  0  0  0  0
   11.2889  -26.5276  -10.1125 C   0  0  0  0  0  0  0  0  0  0  0  0
    4.0081  -31.5366   -8.6873 O   0  0  0  0  0  0  0  0  0  0  0  0
    1.9635  -28.7786   -8.6638 O   0  0  0  0  0  0  0  0  0  0  0  0
    6.5954  -30.3453   -8.0738 O   0  0  0  0  0  0  0  0  0  0  0  0
    1.5729  -31.0149   -8.3069 O   0  0  0  0  0  0  0  0  0  0  0  0
    6.8311  -24.5594   -9.5010 O   0  0  0  0  0  0  0  0  0  0  0  0
   10.4572  -27.6476   -9.8133 O   0  0  0  0  0  0  0  0  0  0  0  0
    5.2644  -18.7798   -9.8029 H   0  0  0  0  0  0  0  0  0  0  0  0
   16.3075  -28.2496  -10.9804 H   0  0  0  0  0  0  0  0  0  0  0  0
    5.4063  -20.1043  -11.8959 H   0  0  0  0  0  0  0  0  0  0  0  0
    6.2810  -19.6498   -7.7131 H   0  0  0  0  0  0  0  0  0  0  0  0
   15.5905  -27.6213   -8.6899 H   0  0  0  0  0  0  0  0  0  0  0  0
   14.7081  -28.0829  -12.8703 H   0  0  0  0  0  0  0  0  0  0  0  0
    6.5591  -22.2919  -11.9046 H   0  0  0  0  0  0  0  0  0  0  0  0
    7.4358  -21.8360   -7.7114 H   0  0  0  0  0  0  0  0  0  0  0  0
   13.2833  -26.8291   -8.2850 H   0  0  0  0  0  0  0  0  0  0  0  0
   12.3990  -27.2919  -12.4758 H   0  0  0  0  0  0  0  0  0  0  0  0
    5.3806  -26.6758   -8.9608 H   0  0  0  0  0  0  0  0  0  0  0  0
    8.6553  -29.4635   -9.2419 H   0  0  0  0  0  0  0  0  0  0  0  0
    9.3315  -25.2725   -9.8921 H   0  0  0  0  0  0  0  0  0  0  0  0
    4.2869  -28.4009   -9.6182 H   0  0  0  0  0  0  0  0  0  0  0  0
    8.2189  -23.7414  -10.7891 H   0  0  0  0  0  0  0  0  0  0  0  0
    8.5776  -23.5494   -9.0654 H   0  0  0  0  0  0  0  0  0  0  0  0
   11.2555  -25.8238   -9.2738 H   0  0  0  0  0  0  0  0  0  0  0  0
   10.8967  -26.0151  -10.9975 H   0  0  0  0  0  0  0  0  0  0  0  0
    5.9347  -31.0222   -7.9114 H   0  0  0  0  0  0  0  0  0  0  0  0
    0.6341  -30.7848   -8.1400 H   0  0  0  0  0  0  0  0  0  0  0  0
  1  3  1  0  0  0  0
  1  4  2  0  0  0  0
  2  5  1  0  0  0  0
  2  6  2  0  0  0  0
  3  7  2  0  0  0  0
  4  8  1  0  0  0  0
  5  9  2  0  0  0  0
  6 10  1  0  0  0  0
  7 15  1  0  0  0  0
  8 15  2  0  0  0  0
  9 16  1  0  0  0  0
 10 16  2  0  0  0  0
 11 14  1  0  0  0  0
 11 17  2  0  0  0  0
 12 14  2  0  0  0  0
 12 18  1  0  0  0  0
 13 17  1  0  0  0  0
 13 18  2  0  0  0  0
 14 20  1  0  0  0  0
 15 23  1  0  0  0  0
 16 24  1  0  0  0  0
 17 29  1  0  0  0  0
 18 30  1  0  0  0  0
 19 20  2  0  0  0  0
 19 21  1  0  0  0  0
 20 27  1  0  0  0  0
 21 22  1  0  0  0  0
 21 25  2  0  0  0  0
 22 26  2  0  0  0  0
 22 28  1  0  0  0  0
 23 29  1  0  0  0  0
 24 30  1  0  0  0  0
  1 31  1  0  0  0  0
  2 32  1  0  0  0  0
  3 33  1  0  0  0  0
  4 34  1  0  0  0  0
  5 35  1  0  0  0  0
  6 36  1  0  0  0  0
  7 37  1  0  0  0  0
  8 38  1  0  0  0  0
  9 39  1  0  0  0  0
 10 40  1  0  0  0  0
 11 41  1  0  0  0  0
 12 42  1  0  0  0  0
 13 43  1  0  0  0  0
 19 44  1  0  0  0  0
 23 45  1  0  0  0  0
 23 46  1  0  0  0  0
 24 47  1  0  0  0  0
 24 48  1  0  0  0  0
 27 49  1  0  0  0  0
 28 50  1  0  0  0  0
M  END
> <Hybrid2>
-5.146725177764893

> <Hybrid2>
-5.146725

$$$$
CHEMBL320261
  -OEChem-02152218473D

 50 52  0     0  0  0  0  0  0999 V2000
   15.4546  -27.8302  -10.2893 C   0  0  0  0  0  0  0  0  0  0  0  0
    3.4663  -31.2650   -8.6205 C   0  0  0  0  0  0  0  0  0  0  0  0
   14.6167  -27.7803  -11.4032 C   0  0  0  0  0  0  0  0  0  0  0  0
   14.9161  -27.7312   -9.0064 C   0  0  0  0  0  0  0  0  0  0  0  0
    4.1620  -30.8157   -7.4981 C   0  0  0  0  0  0  0  0  0  0  0  0
    3.8617  -30.8588   -9.8950 C   0  0  0  0  0  0  0  0  0  0  0  0
   13.2401  -27.6313  -11.2343 C   0  0  0  0  0  0  0  0  0  0  0  0
   13.5395  -27.5822   -8.8375 C   0  0  0  0  0  0  0  0  0  0  0  0
    5.2531  -29.9601   -7.6502 C   0  0  0  0  0  0  0  0  0  0  0  0
    4.9528  -30.0032  -10.0471 C   0  0  0  0  0  0  0  0  0  0  0  0
    9.2129  -24.3062   -9.5509 C   0  0  0  0  0  0  0  0  0  0  0  0
    6.9157  -24.9651   -9.1968 C   0  0  0  0  0  0  0  0  0  0  0  0
    8.6364  -26.6480   -9.4067 C   0  0  0  0  0  0  0  0  0  0  0  0
    7.8736  -23.9649   -9.3629 C   0  0  0  0  0  0  0  0  0  0  0  0
   12.7015  -27.5322   -9.9514 C   0  0  0  0  0  0  0  0  0  0  0  0
    5.6485  -29.5539   -8.9247 C   0  0  0  0  0  0  0  0  0  0  0  0
    9.5943  -25.6478   -9.5729 C   0  0  0  0  0  0  0  0  0  0  0  0
    7.2971  -26.3067   -9.2187 C   0  0  0  0  0  0  0  0  0  0  0  0
    8.1342  -21.6129  -10.0465 C   0  0  0  0  0  0  0  0  0  0  0  0
    7.4739  -22.5666   -9.3430 C   0  0  0  0  0  0  0  0  0  0  0  0
    7.7669  -20.1763  -10.0505 C   0  0  0  0  0  0  0  0  0  0  0  0
    8.8919  -19.2100  -10.2554 C   0  0  0  0  0  0  0  0  0  0  0  0
   11.2208  -27.3717   -9.7690 C   0  0  0  0  0  0  0  0  0  0  0  0
    6.8220  -28.6333   -9.0890 C   0  0  0  0  0  0  0  0  0  0  0  0
    6.6499  -19.7183   -9.8795 O   0  0  0  0  0  0  0  0  0  0  0  0
   10.0392  -19.5758  -10.4081 O   0  0  0  0  0  0  0  0  0  0  0  0
    6.3807  -22.2885   -8.5336 O   0  0  0  0  0  0  0  0  0  0  0  0
    8.4207  -17.9567  -10.2076 O   0  0  0  0  0  0  0  0  0  0  0  0
   10.9011  -25.9813   -9.7575 O   0  0  0  0  0  0  0  0  0  0  0  0
    6.3627  -27.2829   -9.0559 O   0  0  0  0  0  0  0  0  0  0  0  0
   16.5263  -27.9476  -10.4209 H   0  0  0  0  0  0  0  0  0  0  0  0
    2.6176  -31.9323   -8.5020 H   0  0  0  0  0  0  0  0  0  0  0  0
   15.0357  -27.8584  -12.4022 H   0  0  0  0  0  0  0  0  0  0  0  0
   15.5681  -27.7711   -8.1388 H   0  0  0  0  0  0  0  0  0  0  0  0
    3.8549  -31.1328   -6.5058 H   0  0  0  0  0  0  0  0  0  0  0  0
    3.3210  -31.2093  -10.7691 H   0  0  0  0  0  0  0  0  0  0  0  0
   12.5949  -27.5931  -12.1081 H   0  0  0  0  0  0  0  0  0  0  0  0
   13.1288  -27.5057   -7.8342 H   0  0  0  0  0  0  0  0  0  0  0  0
    5.7890  -29.6149   -6.7700 H   0  0  0  0  0  0  0  0  0  0  0  0
    5.2537  -29.6919  -11.0439 H   0  0  0  0  0  0  0  0  0  0  0  0
    9.9662  -23.5327   -9.6841 H   0  0  0  0  0  0  0  0  0  0  0  0
    5.8688  -24.7086   -9.0495 H   0  0  0  0  0  0  0  0  0  0  0  0
    8.9339  -27.6936   -9.4235 H   0  0  0  0  0  0  0  0  0  0  0  0
    8.9975  -21.8797  -10.6502 H   0  0  0  0  0  0  0  0  0  0  0  0
   10.6709  -27.8578  -10.5820 H   0  0  0  0  0  0  0  0  0  0  0  0
   10.8952  -27.8230   -8.8256 H   0  0  0  0  0  0  0  0  0  0  0  0
    7.5521  -28.7821   -8.2861 H   0  0  0  0  0  0  0  0  0  0  0  0
    7.3285  -28.8172  -10.0426 H   0  0  0  0  0  0  0  0  0  0  0  0
    6.1834  -21.3503   -8.5766 H   0  0  0  0  0  0  0  0  0  0  0  0
    9.1308  -17.2884  -10.3142 H   0  0  0  0  0  0  0  0  0  0  0  0
  1  3  1  0  0  0  0
  1  4  2  0  0  0  0
  2  5  1  0  0  0  0
  2  6  2  0  0  0  0
  3  7  2  0  0  0  0
  4  8  1  0  0  0  0
  5  9  2  0  0  0  0
  6 10  1  0  0  0  0
  7 15  1  0  0  0  0
  8 15  2  0  0  0  0
  9 16  1  0  0  0  0
 10 16  2  0  0  0  0
 11 14  1  0  0  0  0
 11 17  2  0  0  0  0
 12 14  2  0  0  0  0
 12 18  1  0  0  0  0
 13 17  1  0  0  0  0
 13 18  2  0  0  0  0
 14 20  1  0  0  0  0
 15 23  1  0  0  0  0
 16 24  1  0  0  0  0
 17 29  1  0  0  0  0
 18 30  1  0  0  0  0
 19 20  2  0  0  0  0
 19 21  1  0  0  0  0
 20 27  1  0  0  0  0
 21 22  1  0  0  0  0
 21 25  2  0  0  0  0
 22 26  2  0  0  0  0
 22 28  1  0  0  0  0
 23 29  1  0  0  0  0
 24 30  1  0  0  0  0
  1 31  1  0  0  0  0
  2 32  1  0  0  0  0
  3 33  1  0  0  0  0
  4 34  1  0  0  0  0
  5 35  1  0  0  0  0
  6 36  1  0  0  0  0
  7 37  1  0  0  0  0
  8 38  1  0  0  0  0
  9 39  1  0  0  0  0
 10 40  1  0  0  0  0
 11 41  1  0  0  0  0
 12 42  1  0  0  0  0
 13 43  1  0  0  0  0
 19 44  1  0  0  0  0
 23 45  1  0  0  0  0
 23 46  1  0  0  0  0
 24 47  1  0  0  0  0
 24 48  1  0  0  0  0
 27 49  1  0  0  0  0
 28 50  1  0  0  0  0
M  END
> <Hybrid2>
-5.146725177764893

> <Hybrid2>
-5.091571

$$$$
CHEMBL385825
  -OEChem-02152218473D

 63 67  0     1  0  0  0  0  0999 V2000
   13.3239  -26.5267  -13.2344 C   0  0  0  0  0  0  0  0  0  0  0  0
   11.9441  -26.3901  -13.1794 C   0  0  0  0  0  0  0  0  0  0  0  0
    4.6995  -27.7815   -9.5188 C   0  0  0  0  0  0  0  0  0  0  0  0
    5.8132  -29.4101   -8.1244 C   0  0  0  0  0  0  0  0  0  0  0  0
    3.8359  -28.7721   -9.9862 C   0  0  0  0  0  0  0  0  0  0  0  0
    4.9496  -30.4008   -8.5918 C   0  0  0  0  0  0  0  0  0  0  0  0
   13.9823  -26.8509  -12.0653 C   0  0  0  0  0  0  0  0  0  0  0  0
   11.2639  -26.5782  -11.9700 C   0  0  0  0  0  0  0  0  0  0  0  0
    9.9986  -26.9652   -9.5641 C   0  0  0  0  0  0  0  0  0  0  0  0
    9.2386  -26.6308  -10.6790 C   0  0  0  0  0  0  0  0  0  0  0  0
    5.6882  -28.1005   -8.5880 C   0  0  0  0  0  0  0  0  0  0  0  0
   12.0313  -26.9104  -10.8198 C   0  0  0  0  0  0  0  0  0  0  0  0
    9.8637  -26.4430  -11.8969 C   0  0  0  0  0  0  0  0  0  0  0  0
   11.3742  -27.1066   -9.6089 C   0  0  0  0  0  0  0  0  0  0  0  0
    3.9609  -30.0817   -9.5227 C   0  0  0  0  0  0  0  0  0  0  0  0
    9.0967  -27.1534   -8.4239 C   0  0  0  0  0  0  0  0  0  0  0  0
    6.4911  -22.1818   -9.0339 C   0  0  0  0  0  0  0  0  0  0  0  0
    4.1953  -19.3934   -9.5438 C   0  0  0  0  0  0  0  0  0  0  0  0
    6.4110  -18.6536  -10.1310 C   0  0  0  0  0  0  0  0  0  0  0  0
    4.7687  -20.4586   -8.6135 C   0  0  0  0  0  0  0  0  0  0  0  0
    7.0375  -19.7070   -9.2189 C   0  0  0  0  0  0  0  0  0  0  0  0
    7.7849  -26.5519  -10.3232 C   0  0  1  0  0  0  0  0  0  0  0  0
    8.6324  -27.2434  -13.7675 C   0  0  0  0  0  0  0  0  0  0  0  0
    6.6176  -27.0345   -8.0839 C   0  0  0  0  0  0  0  0  0  0  0  0
    7.9050  -22.4885   -9.4593 C   0  0  0  0  0  0  0  0  0  0  0  0
    8.1804  -23.9857   -9.4433 C   0  0  0  0  0  0  0  0  0  0  0  0
   13.3687  -27.0429  -10.8752 N   0  0  0  0  0  0  0  0  0  0  0  0
    5.0934  -18.2414   -9.6435 N   0  0  0  0  0  0  0  0  0  0  0  0
    7.8102  -26.9217   -8.9035 N   0  0  0  0  0  0  0  0  0  0  0  0
    6.1250  -20.8366   -9.0109 N   0  0  0  0  0  0  0  0  0  0  0  0
    9.4577  -27.4736   -7.3059 O   0  0  0  0  0  0  0  0  0  0  0  0
    5.7354  -23.1100   -8.7353 O   0  0  0  0  0  0  0  0  0  0  0  0
   12.0740  -27.4367   -8.4889 O   0  0  0  0  0  0  0  0  0  0  0  0
    9.1192  -26.1455  -12.9981 O   0  0  0  0  0  0  0  0  0  0  0  0
    3.1299  -31.0326   -9.9694 F   0  0  0  0  0  0  0  0  0  0  0  0
    7.1029  -24.8887  -10.5791 S   0  0  0  0  0  0  0  0  0  0  0  0
   13.8646  -26.3839  -14.1627 H   0  0  0  0  0  0  0  0  0  0  0  0
   11.4137  -26.1347  -14.0937 H   0  0  0  0  0  0  0  0  0  0  0  0
    4.5949  -26.7640   -9.8864 H   0  0  0  0  0  0  0  0  0  0  0  0
    6.5803  -29.6679   -7.3990 H   0  0  0  0  0  0  0  0  0  0  0  0
    3.0658  -28.5238  -10.7103 H   0  0  0  0  0  0  0  0  0  0  0  0
    5.0469  -31.4205   -8.2315 H   0  0  0  0  0  0  0  0  0  0  0  0
   15.0608  -26.9703  -12.0502 H   0  0  0  0  0  0  0  0  0  0  0  0
    4.0078  -19.8166  -10.5384 H   0  0  0  0  0  0  0  0  0  0  0  0
    3.2298  -19.0556   -9.1517 H   0  0  0  0  0  0  0  0  0  0  0  0
    7.0644  -17.7750  -10.1657 H   0  0  0  0  0  0  0  0  0  0  0  0
    6.3330  -19.0371  -11.1557 H   0  0  0  0  0  0  0  0  0  0  0  0
    4.8279  -20.0804   -7.5854 H   0  0  0  0  0  0  0  0  0  0  0  0
    4.1106  -21.3334   -8.6012 H   0  0  0  0  0  0  0  0  0  0  0  0
    7.9905  -20.0290   -9.6433 H   0  0  0  0  0  0  0  0  0  0  0  0
    7.2490  -19.2818   -8.2301 H   0  0  0  0  0  0  0  0  0  0  0  0
    7.2073  -27.3051  -10.8692 H   0  0  0  0  0  0  0  0  0  0  0  0
    8.0552  -26.8672  -14.6157 H   0  0  0  0  0  0  0  0  0  0  0  0
    8.0042  -27.8797  -13.1391 H   0  0  0  0  0  0  0  0  0  0  0  0
    9.4817  -27.8234  -14.1362 H   0  0  0  0  0  0  0  0  0  0  0  0
    6.1191  -26.0590   -8.0778 H   0  0  0  0  0  0  0  0  0  0  0  0
    6.9355  -27.2437   -7.0571 H   0  0  0  0  0  0  0  0  0  0  0  0
    8.5693  -21.9940   -8.7423 H   0  0  0  0  0  0  0  0  0  0  0  0
    8.0857  -22.0506  -10.4462 H   0  0  0  0  0  0  0  0  0  0  0  0
    8.0382  -24.3974   -8.4387 H   0  0  0  0  0  0  0  0  0  0  0  0
    9.2162  -24.1743   -9.7430 H   0  0  0  0  0  0  0  0  0  0  0  0
    4.6948  -17.5575  -10.2862 H   0  0  0  0  0  0  0  0  0  0  0  0
   11.4720  -27.5406   -7.7349 H   0  0  0  0  0  0  0  0  0  0  0  0
  1  2  2  0  0  0  0
  1  7  1  0  0  0  0
  2  8  1  0  0  0  0
  3  5  2  0  0  0  0
  3 11  1  0  0  0  0
  4  6  1  0  0  0  0
  4 11  2  0  0  0  0
  5 15  1  0  0  0  0
  6 15  2  0  0  0  0
  7 27  2  0  0  0  0
  8 12  1  0  0  0  0
  8 13  2  0  0  0  0
  9 10  2  0  0  0  0
  9 14  1  0  0  0  0
  9 16  1  0  0  0  0
 10 13  1  0  0  0  0
 10 22  1  0  0  0  0
 11 24  1  0  0  0  0
 12 14  2  0  0  0  0
 12 27  1  0  0  0  0
 13 34  1  0  0  0  0
 14 33  1  0  0  0  0
 15 35  1  0  0  0  0
 16 29  1  0  0  0  0
 16 31  2  0  0  0  0
 17 25  1  0  0  0  0
 17 30  1  0  0  0  0
 17 32  2  0  0  0  0
 18 20  1  0  0  0  0
 18 28  1  0  0  0  0
 19 21  1  0  0  0  0
 19 28  1  0  0  0  0
 20 30  1  0  0  0  0
 21 30  1  0  0  0  0
 22 29  1  0  0  0  0
 22 36  1  0  0  0  0
 23 34  1  0  0  0  0
 24 29  1  0  0  0  0
 25 26  1  0  0  0  0
 26 36  1  0  0  0  0
  1 37  1  0  0  0  0
  2 38  1  0  0  0  0
  3 39  1  0  0  0  0
  4 40  1  0  0  0  0
  5 41  1  0  0  0  0
  6 42  1  0  0  0  0
  7 43  1  0  0  0  0
 18 44  1  0  0  0  0
 18 45  1  0  0  0  0
 19 46  1  0  0  0  0
 19 47  1  0  0  0  0
 20 48  1  0  0  0  0
 20 49  1  0  0  0  0
 21 50  1  0  0  0  0
 21 51  1  0  0  0  0
 22 52  1  0  0  0  0
 23 53  1  0  0  0  0
 23 54  1  0  0  0  0
 23 55  1  0  0  0  0
 24 56  1  0  0  0  0
 24 57  1  0  0  0  0
 25 58  1  0  0  0  0
 25 59  1  0  0  0  0
 26 60  1  0  0  0  0
 26 61  1  0  0  0  0
 28 62  1  0  0  0  0
 33 63  1  0  0  0  0
M  END
> <Hybrid2>
-5.365031719207764

> <Hybrid2>
-5.365032

$$$$
CHEMBL385825
  -OEChem-02152218473D

 63 67  0     1  0  0  0  0  0999 V2000
   13.7102  -27.0541  -13.2415 C   0  0  0  0  0  0  0  0  0  0  0  0
   12.3683  -26.7020  -13.2695 C   0  0  0  0  0  0  0  0  0  0  0  0
    4.7766  -26.9615  -10.0882 C   0  0  0  0  0  0  0  0  0  0  0  0
    5.5298  -28.7561   -8.6567 C   0  0  0  0  0  0  0  0  0  0  0  0
    3.7999  -27.8000  -10.6254 C   0  0  0  0  0  0  0  0  0  0  0  0
    4.5530  -29.5945   -9.1938 C   0  0  0  0  0  0  0  0  0  0  0  0
   14.2337  -27.4870  -12.0399 C   0  0  0  0  0  0  0  0  0  0  0  0
   11.5913  -26.7897  -12.1078 C   0  0  0  0  0  0  0  0  0  0  0  0
   10.1302  -26.9908   -9.7918 C   0  0  0  0  0  0  0  0  0  0  0  0
    9.5046  -26.5323  -10.9454 C   0  0  0  0  0  0  0  0  0  0  0  0
    5.6417  -27.4396   -9.1039 C   0  0  0  0  0  0  0  0  0  0  0  0
   12.2221  -27.2477  -10.9185 C   0  0  0  0  0  0  0  0  0  0  0  0
   10.2278  -26.4360  -12.1190 C   0  0  0  0  0  0  0  0  0  0  0  0
   11.4665  -27.3471   -9.7541 C   0  0  0  0  0  0  0  0  0  0  0  0
    3.6881  -29.1165  -10.1782 C   0  0  0  0  0  0  0  0  0  0  0  0
    9.1391  -27.0432   -8.7130 C   0  0  0  0  0  0  0  0  0  0  0  0
    7.3901  -21.7184   -9.3949 C   0  0  0  0  0  0  0  0  0  0  0  0
    5.5974  -18.5989   -9.9965 C   0  0  0  0  0  0  0  0  0  0  0  0
    7.9346  -18.2134  -10.4325 C   0  0  0  0  0  0  0  0  0  0  0  0
    5.9361  -19.7484   -9.0514 C   0  0  0  0  0  0  0  0  0  0  0  0
    8.3286  -19.3593   -9.5023 C   0  0  0  0  0  0  0  0  0  0  0  0
    8.0617  -26.2277  -10.6787 C   0  0  1  0  0  0  0  0  0  0  0  0
    9.0080  -27.0177  -14.0758 C   0  0  0  0  0  0  0  0  0  0  0  0
    6.6928  -26.5374   -8.5247 C   0  0  0  0  0  0  0  0  0  0  0  0
    8.7625  -22.2410   -9.7377 C   0  0  0  0  0  0  0  0  0  0  0  0
    8.7980  -23.7629   -9.7310 C   0  0  0  0  0  0  0  0  0  0  0  0
   13.5229  -27.5890  -10.8935 N   0  0  0  0  0  0  0  0  0  0  0  0
    6.6696  -17.6023  -10.0201 N   0  0  0  0  0  0  0  0  0  0  0  0
    7.9381  -26.6079   -9.2670 N   0  0  0  0  0  0  0  0  0  0  0  0
    7.2389  -20.3325   -9.3709 N   0  0  0  0  0  0  0  0  0  0  0  0
    9.3733  -27.4249   -7.5807 O   0  0  0  0  0  0  0  0  0  0  0  0
    6.4806  -22.5181   -9.1600 O   0  0  0  0  0  0  0  0  0  0  0  0
   12.0330  -27.7920   -8.5990 O   0  0  0  0  0  0  0  0  0  0  0  0
    9.6110  -26.0163  -13.2586 O   0  0  0  0  0  0  0  0  0  0  0  0
    2.7484  -29.9209  -10.6920 F   0  0  0  0  0  0  0  0  0  0  0  0
    7.6668  -24.4759  -10.9469 S   0  0  0  0  0  0  0  0  0  0  0  0
   14.3246  -26.9911  -14.1320 H   0  0  0  0  0  0  0  0  0  0  0  0
   11.9439  -26.3591  -14.2101 H   0  0  0  0  0  0  0  0  0  0  0  0
    4.8566  -25.9375  -10.4436 H   0  0  0  0  0  0  0  0  0  0  0  0
    6.1992  -29.1372   -7.8899 H   0  0  0  0  0  0  0  0  0  0  0  0
    3.1260  -27.4278  -11.3912 H   0  0  0  0  0  0  0  0  0  0  0  0
    4.4659  -30.6196   -8.8462 H   0  0  0  0  0  0  0  0  0  0  0  0
   15.2769  -27.7751  -11.9604 H   0  0  0  0  0  0  0  0  0  0  0  0
    5.4096  -18.9797  -11.0080 H   0  0  0  0  0  0  0  0  0  0  0  0
    4.6739  -18.1162   -9.6588 H   0  0  0  0  0  0  0  0  0  0  0  0
    8.7186  -17.4485  -10.4114 H   0  0  0  0  0  0  0  0  0  0  0  0
    7.8629  -18.5719  -11.4668 H   0  0  0  0  0  0  0  0  0  0  0  0
    5.9883  -19.3922   -8.0151 H   0  0  0  0  0  0  0  0  0  0  0  0
    5.1495  -20.5085   -9.0951 H   0  0  0  0  0  0  0  0  0  0  0  0
    9.2444  -19.8243   -9.8726 H   0  0  0  0  0  0  0  0  0  0  0  0
    8.5408  -18.9805   -8.4949 H   0  0  0  0  0  0  0  0  0  0  0  0
    7.4090  -26.8763  -11.2726 H   0  0  0  0  0  0  0  0  0  0  0  0
    8.5522  -26.5488  -14.9513 H   0  0  0  0  0  0  0  0  0  0  0  0
    8.2490  -27.5519  -13.4988 H   0  0  0  0  0  0  0  0  0  0  0  0
    9.7775  -27.7216  -14.4016 H   0  0  0  0  0  0  0  0  0  0  0  0
    6.3542  -25.4956   -8.5321 H   0  0  0  0  0  0  0  0  0  0  0  0
    6.9078  -26.8021   -7.4841 H   0  0  0  0  0  0  0  0  0  0  0  0
    9.4491  -21.8629   -8.9723 H   0  0  0  0  0  0  0  0  0  0  0  0
    9.0722  -21.8294  -10.7036 H   0  0  0  0  0  0  0  0  0  0  0  0
    8.5292  -24.1547   -8.7445 H   0  0  0  0  0  0  0  0  0  0  0  0
    9.8083  -24.1101   -9.9695 H   0  0  0  0  0  0  0  0  0  0  0  0
    6.4251  -16.8592  -10.6740 H   0  0  0  0  0  0  0  0  0  0  0  0
   11.3754  -27.8054   -7.8856 H   0  0  0  0  0  0  0  0  0  0  0  0
  1  2  2  0  0  0  0
  1  7  1  0  0  0  0
  2  8  1  0  0  0  0
  3  5  2  0  0  0  0
  3 11  1  0  0  0  0
  4  6  1  0  0  0  0
  4 11  2  0  0  0  0
  5 15  1  0  0  0  0
  6 15  2  0  0  0  0
  7 27  2  0  0  0  0
  8 12  1  0  0  0  0
  8 13  2  0  0  0  0
  9 10  2  0  0  0  0
  9 14  1  0  0  0  0
  9 16  1  0  0  0  0
 10 13  1  0  0  0  0
 10 22  1  0  0  0  0
 11 24  1  0  0  0  0
 12 14  2  0  0  0  0
 12 27  1  0  0  0  0
 13 34  1  0  0  0  0
 14 33  1  0  0  0  0
 15 35  1  0  0  0  0
 16 29  1  0  0  0  0
 16 31  2  0  0  0  0
 17 25  1  0  0  0  0
 17 30  1  0  0  0  0
 17 32  2  0  0  0  0
 18 20  1  0  0  0  0
 18 28  1  0  0  0  0
 19 21  1  0  0  0  0
 19 28  1  0  0  0  0
 20 30  1  0  0  0  0
 21 30  1  0  0  0  0
 22 29  1  0  0  0  0
 22 36  1  0  0  0  0
 23 34  1  0  0  0  0
 24 29  1  0  0  0  0
 25 26  1  0  0  0  0
 26 36  1  0  0  0  0
  1 37  1  0  0  0  0
  2 38  1  0  0  0  0
  3 39  1  0  0  0  0
  4 40  1  0  0  0  0
  5 41  1  0  0  0  0
  6 42  1  0  0  0  0
  7 43  1  0  0  0  0
 18 44  1  0  0  0  0
 18 45  1  0  0  0  0
 19 46  1  0  0  0  0
 19 47  1  0  0  0  0
 20 48  1  0  0  0  0
 20 49  1  0  0  0  0
 21 50  1  0  0  0  0
 21 51  1  0  0  0  0
 22 52  1  0  0  0  0
 23 53  1  0  0  0  0
 23 54  1  0  0  0  0
 23 55  1  0  0  0  0
 24 56  1  0  0  0  0
 24 57  1  0  0  0  0
 25 58  1  0  0  0  0
 25 59  1  0  0  0  0
 26 60  1  0  0  0  0
 26 61  1  0  0  0  0
 28 62  1  0  0  0  0
 33 63  1  0  0  0  0
M  END
> <Hybrid2>
-5.365031719207764

> <Hybrid2>
-4.495537

$$$$
CHEMBL217285
  -OEChem-02152218473D

 32 33  0     0  0  0  0  0  0999 V2000
   13.3056  -26.6549   -9.3012 C   0  0  0  0  0  0  0  0  0  0  0  0
   12.7858  -26.8563  -11.6520 C   0  0  0  0  0  0  0  0  0  0  0  0
   14.4750  -27.3895   -9.4968 C   0  0  0  0  0  0  0  0  0  0  0  0
   13.9553  -27.5909  -11.8477 C   0  0  0  0  0  0  0  0  0  0  0  0
   12.4609  -26.3883  -10.3788 C   0  0  0  0  0  0  0  0  0  0  0  0
    6.4672  -26.5300   -9.0150 C   0  0  0  0  0  0  0  0  0  0  0  0
   14.7999  -27.8574  -10.7700 C   0  0  0  0  0  0  0  0  0  0  0  0
    7.7654  -26.9224   -9.2702 C   0  0  0  0  0  0  0  0  0  0  0  0
    5.5858  -27.5463   -8.7076 C   0  0  0  0  0  0  0  0  0  0  0  0
    7.2285  -29.1032   -8.9193 C   0  0  0  0  0  0  0  0  0  0  0  0
    8.8149  -25.9288   -9.6143 C   0  0  0  0  0  0  0  0  0  0  0  0
    7.6515  -30.5321   -8.8655 C   0  0  0  0  0  0  0  0  0  0  0  0
   11.2107  -25.6023  -10.1705 C   0  0  0  0  0  0  0  0  0  0  0  0
    8.1822  -28.2050   -9.2310 N   0  0  0  0  0  0  0  0  0  0  0  0
    5.9336  -28.8487   -8.6508 N   0  0  0  0  0  0  0  0  0  0  0  0
   10.0834  -26.4407   -9.8502 N   0  0  0  0  0  0  0  0  0  0  0  0
    8.5230  -24.7364   -9.6521 O   0  0  0  0  0  0  0  0  0  0  0  0
    6.0781  -25.2345   -9.0616 O   0  0  0  0  0  0  0  0  0  0  0  0
    4.2751  -27.2498   -8.4401 O   0  0  0  0  0  0  0  0  0  0  0  0
   15.9244  -28.5606  -10.9585 F   0  0  0  0  0  0  0  0  0  0  0  0
   13.0604  -26.2951   -8.3053 H   0  0  0  0  0  0  0  0  0  0  0  0
   12.1339  -26.6532  -12.4976 H   0  0  0  0  0  0  0  0  0  0  0  0
   15.1330  -27.5965   -8.6582 H   0  0  0  0  0  0  0  0  0  0  0  0
   14.2084  -27.9557  -12.8387 H   0  0  0  0  0  0  0  0  0  0  0  0
    7.9872  -30.7935   -7.8544 H   0  0  0  0  0  0  0  0  0  0  0  0
    6.8276  -31.2025   -9.1426 H   0  0  0  0  0  0  0  0  0  0  0  0
    8.4724  -30.7315   -9.5669 H   0  0  0  0  0  0  0  0  0  0  0  0
   11.3287  -24.8805   -9.3501 H   0  0  0  0  0  0  0  0  0  0  0  0
   10.9445  -25.0238  -11.0658 H   0  0  0  0  0  0  0  0  0  0  0  0
   10.2599  -27.4357   -9.7379 H   0  0  0  0  0  0  0  0  0  0  0  0
    6.8276  -24.6584   -9.2928 H   0  0  0  0  0  0  0  0  0  0  0  0
    3.7891  -28.0630   -8.2441 H   0  0  0  0  0  0  0  0  0  0  0  0
  1  3  2  0  0  0  0
  1  5  1  0  0  0  0
  2  4  1  0  0  0  0
  2  5  2  0  0  0  0
  3  7  1  0  0  0  0
  4  7  2  0  0  0  0
  5 13  1  0  0  0  0
  6  8  2  0  0  0  0
  6  9  1  0  0  0  0
  6 18  1  0  0  0  0
  7 20  1  0  0  0  0
  8 11  1  0  0  0  0
  8 14  1  0  0  0  0
  9 15  2  0  0  0  0
  9 19  1  0  0  0  0
 10 12  1  0  0  0  0
 10 14  2  0  0  0  0
 10 15  1  0  0  0  0
 11 16  1  0  0  0  0
 11 17  2  0  0  0  0
 13 16  1  0  0  0  0
  1 21  1  0  0  0  0
  2 22  1  0  0  0  0
  3 23  1  0  0  0  0
  4 24  1  0  0  0  0
 12 25  1  0  0  0  0
 12 26  1  0  0  0  0
 12 27  1  0  0  0  0
 13 28  1  0  0  0  0
 13 29  1  0  0  0  0
 16 30  1  0  0  0  0
 18 31  1  0  0  0  0
 19 32  1  0  0  0  0
M  END
> <Hybrid2>
-4.152303695678711

> <Hybrid2>
-4.152304

$$$$
CHEMBL217285
  -OEChem-02152218473D

 32 33  0     0  0  0  0  0  0999 V2000
    6.4524  -27.2772   -8.0497 C   0  0  0  0  0  0  0  0  0  0  0  0
    7.3033  -28.3131  -10.0596 C   0  0  0  0  0  0  0  0  0  0  0  0
    5.6937  -28.4170   -7.7834 C   0  0  0  0  0  0  0  0  0  0  0  0
    6.5447  -29.4529   -9.7933 C   0  0  0  0  0  0  0  0  0  0  0  0
    7.2571  -27.2252   -9.1878 C   0  0  0  0  0  0  0  0  0  0  0  0
   12.8788  -27.1819   -9.9014 C   0  0  0  0  0  0  0  0  0  0  0  0
    5.7399  -29.5049   -8.6552 C   0  0  0  0  0  0  0  0  0  0  0  0
   11.6407  -26.8756  -10.4284 C   0  0  0  0  0  0  0  0  0  0  0  0
   13.8804  -27.4084  -10.8232 C   0  0  0  0  0  0  0  0  0  0  0  0
   12.4470  -27.0358  -12.5476 C   0  0  0  0  0  0  0  0  0  0  0  0
   10.4748  -26.6096   -9.5468 C   0  0  0  0  0  0  0  0  0  0  0  0
   12.2074  -26.9540  -14.0171 C   0  0  0  0  0  0  0  0  0  0  0  0
    8.0691  -26.0072   -9.4728 C   0  0  0  0  0  0  0  0  0  0  0  0
   11.3884  -26.7938  -11.7512 N   0  0  0  0  0  0  0  0  0  0  0  0
   13.6990  -27.3436  -12.1586 N   0  0  0  0  0  0  0  0  0  0  0  0
    9.2812  -26.3121  -10.1899 N   0  0  0  0  0  0  0  0  0  0  0  0
   10.6238  -26.6444   -8.3282 O   0  0  0  0  0  0  0  0  0  0  0  0
   13.1020  -27.2565   -8.5686 O   0  0  0  0  0  0  0  0  0  0  0  0
   15.1428  -27.7195  -10.3906 O   0  0  0  0  0  0  0  0  0  0  0  0
    5.0135  -30.6006   -8.3981 F   0  0  0  0  0  0  0  0  0  0  0  0
    6.4093  -26.4342   -7.3650 H   0  0  0  0  0  0  0  0  0  0  0  0
    7.9277  -28.2817  -10.9487 H   0  0  0  0  0  0  0  0  0  0  0  0
    5.0678  -28.4578   -6.8971 H   0  0  0  0  0  0  0  0  0  0  0  0
    6.5801  -30.2999  -10.4720 H   0  0  0  0  0  0  0  0  0  0  0  0
   12.3868  -25.9336  -14.3774 H   0  0  0  0  0  0  0  0  0  0  0  0
   12.8667  -27.6380  -14.5673 H   0  0  0  0  0  0  0  0  0  0  0  0
   11.1765  -27.2357  -14.2692 H   0  0  0  0  0  0  0  0  0  0  0  0
    7.5015  -25.2850  -10.0763 H   0  0  0  0  0  0  0  0  0  0  0  0
    8.3576  -25.4896   -8.5475 H   0  0  0  0  0  0  0  0  0  0  0  0
    9.2530  -26.2410  -11.2037 H   0  0  0  0  0  0  0  0  0  0  0  0
   12.2865  -27.0680   -8.0722 H   0  0  0  0  0  0  0  0  0  0  0  0
   15.7269  -27.8480  -11.1509 H   0  0  0  0  0  0  0  0  0  0  0  0
  1  3  2  0  0  0  0
  1  5  1  0  0  0  0
  2  4  1  0  0  0  0
  2  5  2  0  0  0  0
  3  7  1  0  0  0  0
  4  7  2  0  0  0  0
  5 13  1  0  0  0  0
  6  8  2  0  0  0  0
  6  9  1  0  0  0  0
  6 18  1  0  0  0  0
  7 20  1  0  0  0  0
  8 11  1  0  0  0  0
  8 14  1  0  0  0  0
  9 15  2  0  0  0  0
  9 19  1  0  0  0  0
 10 12  1  0  0  0  0
 10 14  2  0  0  0  0
 10 15  1  0  0  0  0
 11 16  1  0  0  0  0
 11 17  2  0  0  0  0
 13 16  1  0  0  0  0
  1 21  1  0  0  0  0
  2 22  1  0  0  0  0
  3 23  1  0  0  0  0
  4 24  1  0  0  0  0
 12 25  1  0  0  0  0
 12 26  1  0  0  0  0
 12 27  1  0  0  0  0
 13 28  1  0  0  0  0
 13 29  1  0  0  0  0
 16 30  1  0  0  0  0
 18 31  1  0  0  0  0
 19 32  1  0  0  0  0
M  END
> <Hybrid2>
-4.152303695678711

> <Hybrid2>
-3.911671

$$$$
CHEMBL385951
  -OEChem-02152218473D

 39 41  0     0  0  0  0  0  0999 V2000
    5.9031  -31.0584   -7.7089 C   0  0  0  0  0  0  0  0  0  0  0  0
   14.5545  -25.1786  -12.0923 C   0  0  0  0  0  0  0  0  0  0  0  0
    7.1402  -30.8652   -8.3236 C   0  0  0  0  0  0  0  0  0  0  0  0
    5.0080  -29.9948   -7.5937 C   0  0  0  0  0  0  0  0  0  0  0  0
   13.5391  -24.4635  -12.7272 C   0  0  0  0  0  0  0  0  0  0  0  0
   14.3679  -26.5247  -11.7777 C   0  0  0  0  0  0  0  0  0  0  0  0
    7.4823  -29.6086   -8.8230 C   0  0  0  0  0  0  0  0  0  0  0  0
    5.3500  -28.7381   -8.0930 C   0  0  0  0  0  0  0  0  0  0  0  0
   12.3370  -25.0944  -13.0475 C   0  0  0  0  0  0  0  0  0  0  0  0
   13.1659  -27.1556  -12.0980 C   0  0  0  0  0  0  0  0  0  0  0  0
    6.5872  -28.5450   -8.7077 C   0  0  0  0  0  0  0  0  0  0  0  0
   12.1504  -26.4405  -12.7329 C   0  0  0  0  0  0  0  0  0  0  0  0
    7.6013  -24.8229  -10.1879 C   0  0  0  0  0  0  0  0  0  0  0  0
    8.0791  -25.9910  -10.7461 C   0  0  0  0  0  0  0  0  0  0  0  0
    6.7626  -24.9790   -9.1032 C   0  0  0  0  0  0  0  0  0  0  0  0
    6.9423  -27.2417   -9.2260 C   0  0  0  0  0  0  0  0  0  0  0  0
    8.9720  -25.9661  -11.8942 C   0  0  0  0  0  0  0  0  0  0  0  0
   10.8567  -27.1202  -13.0772 C   0  0  0  0  0  0  0  0  0  0  0  0
    7.7689  -27.2219  -10.2889 N   0  0  0  0  0  0  0  0  0  0  0  0
    6.4106  -26.1778   -8.5942 N   0  0  0  0  0  0  0  0  0  0  0  0
    9.8900  -27.0164  -12.0078 N   0  0  0  0  0  0  0  0  0  0  0  0
    8.9191  -25.0328  -12.7145 O   0  0  0  0  0  0  0  0  0  0  0  0
    7.9304  -23.6012  -10.6686 O   0  0  0  0  0  0  0  0  0  0  0  0
    6.2403  -23.8734   -8.4850 O   0  0  0  0  0  0  0  0  0  0  0  0
    5.6363  -32.0373   -7.3217 H   0  0  0  0  0  0  0  0  0  0  0  0
   15.4910  -24.6875  -11.8442 H   0  0  0  0  0  0  0  0  0  0  0  0
    7.8366  -31.6936   -8.4149 H   0  0  0  0  0  0  0  0  0  0  0  0
    4.0440  -30.1448   -7.1164 H   0  0  0  0  0  0  0  0  0  0  0  0
   13.6846  -23.4157  -12.9733 H   0  0  0  0  0  0  0  0  0  0  0  0
   15.1587  -27.0820  -11.2844 H   0  0  0  0  0  0  0  0  0  0  0  0
    8.4504  -29.4741   -9.2998 H   0  0  0  0  0  0  0  0  0  0  0  0
    4.6418  -27.9186   -7.9965 H   0  0  0  0  0  0  0  0  0  0  0  0
   11.5513  -24.5293  -13.5420 H   0  0  0  0  0  0  0  0  0  0  0  0
   13.0293  -28.2046  -11.8490 H   0  0  0  0  0  0  0  0  0  0  0  0
   10.4145  -26.6763  -13.9758 H   0  0  0  0  0  0  0  0  0  0  0  0
   11.0145  -28.1839  -13.2838 H   0  0  0  0  0  0  0  0  0  0  0  0
    9.9332  -27.7189  -11.2768 H   0  0  0  0  0  0  0  0  0  0  0  0
    8.5280  -23.6817  -11.4324 H   0  0  0  0  0  0  0  0  0  0  0  0
    5.6765  -24.1464   -7.7478 H   0  0  0  0  0  0  0  0  0  0  0  0
  1  3  1  0  0  0  0
  1  4  2  0  0  0  0
  2  5  1  0  0  0  0
  2  6  2  0  0  0  0
  3  7  2  0  0  0  0
  4  8  1  0  0  0  0
  5  9  2  0  0  0  0
  6 10  1  0  0  0  0
  7 11  1  0  0  0  0
  8 11  2  0  0  0  0
  9 12  1  0  0  0  0
 10 12  2  0  0  0  0
 11 16  1  0  0  0  0
 12 18  1  0  0  0  0
 13 14  1  0  0  0  0
 13 15  2  0  0  0  0
 13 23  1  0  0  0  0
 14 17  1  0  0  0  0
 14 19  2  0  0  0  0
 15 20  1  0  0  0  0
 15 24  1  0  0  0  0
 16 19  1  0  0  0  0
 16 20  2  0  0  0  0
 17 21  1  0  0  0  0
 17 22  2  0  0  0  0
 18 21  1  0  0  0  0
  1 25  1  0  0  0  0
  2 26  1  0  0  0  0
  3 27  1  0  0  0  0
  4 28  1  0  0  0  0
  5 29  1  0  0  0  0
  6 30  1  0  0  0  0
  7 31  1  0  0  0  0
  8 32  1  0  0  0  0
  9 33  1  0  0  0  0
 10 34  1  0  0  0  0
 18 35  1  0  0  0  0
 18 36  1  0  0  0  0
 21 37  1  0  0  0  0
 23 38  1  0  0  0  0
 24 39  1  0  0  0  0
M  END
> <Hybrid2>
-5.026379585266113

> <Hybrid2>
-5.026380

$$$$
CHEMBL385951
  -OEChem-02152218473D

 39 41  0     0  0  0  0  0  0999 V2000
    6.3704  -30.8219   -8.6437 C   0  0  0  0  0  0  0  0  0  0  0  0
   15.6164  -26.7102  -10.6161 C   0  0  0  0  0  0  0  0  0  0  0  0
    7.7127  -30.5633   -8.9209 C   0  0  0  0  0  0  0  0  0  0  0  0
    5.4458  -29.7775   -8.6368 C   0  0  0  0  0  0  0  0  0  0  0  0
   15.0643  -25.4700  -10.9362 C   0  0  0  0  0  0  0  0  0  0  0  0
   14.9703  -27.8831  -11.0068 C   0  0  0  0  0  0  0  0  0  0  0  0
    8.1305  -29.2602   -9.1911 C   0  0  0  0  0  0  0  0  0  0  0  0
    5.8636  -28.4744   -8.9070 C   0  0  0  0  0  0  0  0  0  0  0  0
   13.8660  -25.4026  -11.6471 C   0  0  0  0  0  0  0  0  0  0  0  0
   13.7721  -27.8157  -11.7176 C   0  0  0  0  0  0  0  0  0  0  0  0
    7.2059  -28.2157   -9.1842 C   0  0  0  0  0  0  0  0  0  0  0  0
   13.2199  -26.5754  -12.0378 C   0  0  0  0  0  0  0  0  0  0  0  0
    8.4446  -24.3561   -9.9853 C   0  0  0  0  0  0  0  0  0  0  0  0
    9.0722  -25.4576  -10.5306 C   0  0  0  0  0  0  0  0  0  0  0  0
    7.3763  -24.6278   -9.1552 C   0  0  0  0  0  0  0  0  0  0  0  0
    7.6396  -26.8642   -9.4647 C   0  0  0  0  0  0  0  0  0  0  0  0
   10.2117  -25.3094  -11.4226 C   0  0  0  0  0  0  0  0  0  0  0  0
   11.9300  -26.5036  -12.8027 C   0  0  0  0  0  0  0  0  0  0  0  0
    8.6947  -26.7305  -10.2908 N   0  0  0  0  0  0  0  0  0  0  0  0
    6.9450  -25.8744   -8.8720 N   0  0  0  0  0  0  0  0  0  0  0  0
   10.7814  -26.4847  -11.9256 N   0  0  0  0  0  0  0  0  0  0  0  0
   10.6564  -24.1807  -11.6960 O   0  0  0  0  0  0  0  0  0  0  0  0
    8.8463  -23.0898  -10.2443 O   0  0  0  0  0  0  0  0  0  0  0  0
    6.6928  -23.5949   -8.5691 O   0  0  0  0  0  0  0  0  0  0  0  0
    6.0450  -31.8369   -8.4350 H   0  0  0  0  0  0  0  0  0  0  0  0
   16.5501  -26.7626  -10.0637 H   0  0  0  0  0  0  0  0  0  0  0  0
    8.4324  -31.3766   -8.9280 H   0  0  0  0  0  0  0  0  0  0  0  0
    4.4002  -29.9784   -8.4224 H   0  0  0  0  0  0  0  0  0  0  0  0
   15.5677  -24.5566  -10.6330 H   0  0  0  0  0  0  0  0  0  0  0  0
   15.4005  -28.8489  -10.7586 H   0  0  0  0  0  0  0  0  0  0  0  0
    9.1804  -29.0748   -9.4057 H   0  0  0  0  0  0  0  0  0  0  0  0
    5.1313  -27.6705   -8.8986 H   0  0  0  0  0  0  0  0  0  0  0  0
   13.4431  -24.4318  -11.8920 H   0  0  0  0  0  0  0  0  0  0  0  0
   13.2757  -28.7347  -12.0178 H   0  0  0  0  0  0  0  0  0  0  0  0
   11.8974  -25.5997  -13.4207 H   0  0  0  0  0  0  0  0  0  0  0  0
   11.8236  -27.3613  -13.4752 H   0  0  0  0  0  0  0  0  0  0  0  0
   10.4188  -27.3820  -11.6206 H   0  0  0  0  0  0  0  0  0  0  0  0
    9.6104  -23.0878  -10.8469 H   0  0  0  0  0  0  0  0  0  0  0  0
    5.9772  -23.9455   -8.0207 H   0  0  0  0  0  0  0  0  0  0  0  0
  1  3  1  0  0  0  0
  1  4  2  0  0  0  0
  2  5  1  0  0  0  0
  2  6  2  0  0  0  0
  3  7  2  0  0  0  0
  4  8  1  0  0  0  0
  5  9  2  0  0  0  0
  6 10  1  0  0  0  0
  7 11  1  0  0  0  0
  8 11  2  0  0  0  0
  9 12  1  0  0  0  0
 10 12  2  0  0  0  0
 11 16  1  0  0  0  0
 12 18  1  0  0  0  0
 13 14  1  0  0  0  0
 13 15  2  0  0  0  0
 13 23  1  0  0  0  0
 14 17  1  0  0  0  0
 14 19  2  0  0  0  0
 15 20  1  0  0  0  0
 15 24  1  0  0  0  0
 16 19  1  0  0  0  0
 16 20  2  0  0  0  0
 17 21  1  0  0  0  0
 17 22  2  0  0  0  0
 18 21  1  0  0  0  0
  1 25  1  0  0  0  0
  2 26  1  0  0  0  0
  3 27  1  0  0  0  0
  4 28  1  0  0  0  0
  5 29  1  0  0  0  0
  6 30  1  0  0  0  0
  7 31  1  0  0  0  0
  8 32  1  0  0  0  0
  9 33  1  0  0  0  0
 10 34  1  0  0  0  0
 18 35  1  0  0  0  0
 18 36  1  0  0  0  0
 21 37  1  0  0  0  0
 23 38  1  0  0  0  0
 24 39  1  0  0  0  0
M  END
> <Hybrid2>
-5.026379585266113

> <Hybrid2>
-4.567414

$$$$
CHEMBL63592
  -OEChem-02152218473D

 52 53  0     1  0  0  0  0  0999 V2000
    0.8048  -29.8433   -7.4880 C   0  0  0  0  0  0  0  0  0  0  0  0
   12.0880  -26.2124  -11.9463 C   0  0  0  0  0  0  0  0  0  0  0  0
   -0.3154  -30.4331   -6.9024 C   0  0  0  0  0  0  0  0  0  0  0  0
   13.3640  -26.0565  -12.4878 C   0  0  0  0  0  0  0  0  0  0  0  0
    1.5653  -32.0159   -8.2216 C   0  0  0  0  0  0  0  0  0  0  0  0
   12.8836  -28.0558  -10.6024 C   0  0  0  0  0  0  0  0  0  0  0  0
    1.7451  -30.6347   -8.1477 C   0  0  0  0  0  0  0  0  0  0  0  0
   11.8478  -27.2121  -11.0036 C   0  0  0  0  0  0  0  0  0  0  0  0
   -0.4952  -31.8143   -6.9763 C   0  0  0  0  0  0  0  0  0  0  0  0
   14.3997  -26.9002  -12.0866 C   0  0  0  0  0  0  0  0  0  0  0  0
    0.4452  -32.6058   -7.6360 C   0  0  0  0  0  0  0  0  0  0  0  0
   14.1596  -27.8999  -11.1439 C   0  0  0  0  0  0  0  0  0  0  0  0
    2.9270  -30.0110   -8.7686 C   0  0  0  0  0  0  0  0  0  0  0  0
   10.5004  -27.3748  -10.4297 C   0  0  0  0  0  0  0  0  0  0  0  0
    3.0190  -28.7147   -9.0979 C   0  0  0  0  0  0  0  0  0  0  0  0
    9.5524  -26.4269  -10.4321 C   0  0  0  0  0  0  0  0  0  0  0  0
    4.2674  -28.2039   -9.7083 C   0  0  0  0  0  0  0  0  0  0  0  0
    8.2302  -26.7160   -9.8320 C   0  0  0  0  0  0  0  0  0  0  0  0
    4.7627  -25.0953  -11.4727 C   0  0  0  0  0  0  0  0  0  0  0  0
    5.7538  -24.3266   -8.8972 C   0  0  0  0  0  0  0  0  0  0  0  0
    5.2142  -26.2069  -10.5383 C   0  0  1  0  0  0  0  0  0  0  0  0
    6.1393  -25.6948   -9.4332 C   0  0  1  0  0  0  0  0  0  0  0  0
    5.2611  -28.8701   -9.9517 O   0  0  0  0  0  0  0  0  0  0  0  0
    7.9027  -27.7722   -9.3147 O   0  0  0  0  0  0  0  0  0  0  0  0
    3.5892  -24.7803  -11.6297 O   0  0  0  0  0  0  0  0  0  0  0  0
    6.4449  -23.3204   -8.9888 O   0  0  0  0  0  0  0  0  0  0  0  0
   -1.5934  -32.3779   -6.4002 O   0  0  0  0  0  0  0  0  0  0  0  0
   15.6412  -26.7374  -12.6232 O   0  0  0  0  0  0  0  0  0  0  0  0
    0.2801  -33.9559   -7.7135 O   0  0  0  0  0  0  0  0  0  0  0  0
   15.1635  -28.7302  -10.7456 O   0  0  0  0  0  0  0  0  0  0  0  0
    5.7811  -24.5023  -12.1423 O   0  0  0  0  0  0  0  0  0  0  0  0
    4.5501  -24.3408   -8.2692 O   0  0  0  0  0  0  0  0  0  0  0  0
    4.1081  -26.8679   -9.9486 O   0  0  0  0  0  0  0  0  0  0  0  0
    7.4568  -25.5993   -9.9609 O   0  0  0  0  0  0  0  0  0  0  0  0
    0.9309  -28.7652   -7.4231 H   0  0  0  0  0  0  0  0  0  0  0  0
   11.2909  -25.5465  -12.2679 H   0  0  0  0  0  0  0  0  0  0  0  0
   -1.0440  -29.8109   -6.3898 H   0  0  0  0  0  0  0  0  0  0  0  0
   13.5443  -25.2759  -13.2219 H   0  0  0  0  0  0  0  0  0  0  0  0
    2.2934  -32.6406   -8.7346 H   0  0  0  0  0  0  0  0  0  0  0  0
   12.7052  -28.8377   -9.8674 H   0  0  0  0  0  0  0  0  0  0  0  0
    3.7689  -30.6789   -8.9370 H   0  0  0  0  0  0  0  0  0  0  0  0
   10.2941  -28.3532  -10.0014 H   0  0  0  0  0  0  0  0  0  0  0  0
    2.2130  -28.0097   -8.9260 H   0  0  0  0  0  0  0  0  0  0  0  0
    9.7078  -25.4465  -10.8690 H   0  0  0  0  0  0  0  0  0  0  0  0
    5.7381  -26.9472  -11.1551 H   0  0  0  0  0  0  0  0  0  0  0  0
    6.1689  -26.3961   -8.5910 H   0  0  0  0  0  0  0  0  0  0  0  0
   -2.1427  -31.6941   -5.9858 H   0  0  0  0  0  0  0  0  0  0  0  0
   15.6385  -26.0039  -13.2580 H   0  0  0  0  0  0  0  0  0  0  0  0
    1.0171  -34.3561   -8.2011 H   0  0  0  0  0  0  0  0  0  0  0  0
   14.8332  -29.3652  -10.0909 H   0  0  0  0  0  0  0  0  0  0  0  0
    5.5036  -23.7976  -12.7657 H   0  0  0  0  0  0  0  0  0  0  0  0
    4.2712  -23.4797   -7.8907 H   0  0  0  0  0  0  0  0  0  0  0  0
  1  3  2  0  0  0  0
  1  7  1  0  0  0  0
  2  4  2  0  0  0  0
  2  8  1  0  0  0  0
  3  9  1  0  0  0  0
  4 10  1  0  0  0  0
  5  7  2  0  0  0  0
  5 11  1  0  0  0  0
  6  8  2  0  0  0  0
  6 12  1  0  0  0  0
  7 13  1  0  0  0  0
  8 14  1  0  0  0  0
  9 11  2  0  0  0  0
  9 27  1  0  0  0  0
 10 12  2  0  0  0  0
 10 28  1  0  0  0  0
 11 29  1  0  0  0  0
 12 30  1  0  0  0  0
 13 15  2  0  0  0  0
 14 16  2  0  0  0  0
 15 17  1  0  0  0  0
 16 18  1  0  0  0  0
 17 23  2  0  0  0  0
 17 33  1  0  0  0  0
 18 24  2  0  0  0  0
 18 34  1  0  0  0  0
 19 21  1  0  0  0  0
 19 25  2  0  0  0  0
 19 31  1  0  0  0  0
 20 22  1  0  0  0  0
 20 26  2  0  0  0  0
 20 32  1  0  0  0  0
 21 22  1  0  0  0  0
 21 33  1  0  0  0  0
 22 34  1  0  0  0  0
  1 35  1  0  0  0  0
  2 36  1  0  0  0  0
  3 37  1  0  0  0  0
  4 38  1  0  0  0  0
  5 39  1  0  0  0  0
  6 40  1  0  0  0  0
 13 41  1  0  0  0  0
 14 42  1  0  0  0  0
 15 43  1  0  0  0  0
 16 44  1  0  0  0  0
 21 45  1  0  0  0  0
 22 46  1  0  0  0  0
 27 47  1  0  0  0  0
 28 48  1  0  0  0  0
 29 49  1  0  0  0  0
 30 50  1  0  0  0  0
 31 51  1  0  0  0  0
 32 52  1  0  0  0  0
M  END
> <Hybrid2>
-5.280195236206055

> <Hybrid2>
-5.280195

$$$$
CHEMBL63592
  -OEChem-02152218473D

 52 53  0     1  0  0  0  0  0999 V2000
    1.0296  -29.0113   -7.8388 C   0  0  0  0  0  0  0  0  0  0  0  0
   12.6353  -26.1275  -12.0057 C   0  0  0  0  0  0  0  0  0  0  0  0
   -0.1421  -29.5290   -7.2868 C   0  0  0  0  0  0  0  0  0  0  0  0
   13.9301  -26.0546  -12.5193 C   0  0  0  0  0  0  0  0  0  0  0  0
    1.6461  -31.2195   -8.6010 C   0  0  0  0  0  0  0  0  0  0  0  0
   13.2677  -28.0485  -10.6839 C   0  0  0  0  0  0  0  0  0  0  0  0
    1.9237  -29.8565   -8.4960 C   0  0  0  0  0  0  0  0  0  0  0  0
   12.3041  -27.1244  -11.0879 C   0  0  0  0  0  0  0  0  0  0  0  0
   -0.4197  -30.8919   -7.3918 C   0  0  0  0  0  0  0  0  0  0  0  0
   14.8937  -26.9787  -12.1153 C   0  0  0  0  0  0  0  0  0  0  0  0
    0.4744  -31.7372   -8.0490 C   0  0  0  0  0  0  0  0  0  0  0  0
   14.5625  -27.9756  -11.1975 C   0  0  0  0  0  0  0  0  0  0  0  0
    3.1601  -29.3089   -9.0815 C   0  0  0  0  0  0  0  0  0  0  0  0
   10.9369  -27.1995  -10.5435 C   0  0  0  0  0  0  0  0  0  0  0  0
    3.3523  -28.0169   -9.3830 C   0  0  0  0  0  0  0  0  0  0  0  0
   10.0601  -26.1853  -10.5451 C   0  0  0  0  0  0  0  0  0  0  0  0
    4.6467  -27.5869   -9.9588 C   0  0  0  0  0  0  0  0  0  0  0  0
    8.7083  -26.3887   -9.9765 C   0  0  0  0  0  0  0  0  0  0  0  0
    5.4017  -24.4902  -11.6508 C   0  0  0  0  0  0  0  0  0  0  0  0
    6.3923  -23.8435   -9.0418 C   0  0  0  0  0  0  0  0  0  0  0  0
    5.7522  -25.6488  -10.7303 C   0  0  1  0  0  0  0  0  0  0  0  0
    6.6890  -25.2259   -9.5976 C   0  0  1  0  0  0  0  0  0  0  0  0
    5.5944  -28.3188  -10.1964 O   0  0  0  0  0  0  0  0  0  0  0  0
    8.2948  -27.4277   -9.4868 O   0  0  0  0  0  0  0  0  0  0  0  0
    4.2574  -24.0880  -11.8240 O   0  0  0  0  0  0  0  0  0  0  0  0
    7.1561  -22.8887   -9.1000 O   0  0  0  0  0  0  0  0  0  0  0  0
   -1.5673  -31.3848   -6.8483 O   0  0  0  0  0  0  0  0  0  0  0  0
   16.1545  -26.8966  -12.6245 O   0  0  0  0  0  0  0  0  0  0  0  0
    0.2139  -33.0700   -8.1567 O   0  0  0  0  0  0  0  0  0  0  0  0
   15.4954  -28.8839  -10.7966 O   0  0  0  0  0  0  0  0  0  0  0  0
    6.4739  -23.9605  -12.2887 O   0  0  0  0  0  0  0  0  0  0  0  0
    5.1781  -23.7819   -8.4375 O   0  0  0  0  0  0  0  0  0  0  0  0
    4.5894  -26.2386  -10.1754 O   0  0  0  0  0  0  0  0  0  0  0  0
    8.0205  -25.2166  -10.0978 O   0  0  0  0  0  0  0  0  0  0  0  0
    1.2319  -27.9466   -7.7500 H   0  0  0  0  0  0  0  0  0  0  0  0
   11.8952  -25.3996  -12.3291 H   0  0  0  0  0  0  0  0  0  0  0  0
   -0.8343  -28.8651   -6.7759 H   0  0  0  0  0  0  0  0  0  0  0  0
   14.1815  -25.2757  -13.2341 H   0  0  0  0  0  0  0  0  0  0  0  0
    2.3376  -31.8857   -9.1122 H   0  0  0  0  0  0  0  0  0  0  0  0
   13.0182  -28.8288   -9.9683 H   0  0  0  0  0  0  0  0  0  0  0  0
    3.9548  -30.0330   -9.2470 H   0  0  0  0  0  0  0  0  0  0  0  0
   10.6516  -28.1681  -10.1389 H   0  0  0  0  0  0  0  0  0  0  0  0
    2.5960  -27.2585   -9.2125 H   0  0  0  0  0  0  0  0  0  0  0  0
   10.2949  -25.2109  -10.9592 H   0  0  0  0  0  0  0  0  0  0  0  0
    6.2339  -26.4137  -11.3516 H   0  0  0  0  0  0  0  0  0  0  0  0
    6.6504  -25.9430   -8.7692 H   0  0  0  0  0  0  0  0  0  0  0  0
   -2.0743  -30.6707   -6.4310 H   0  0  0  0  0  0  0  0  0  0  0  0
   16.2179  -26.1531  -13.2444 H   0  0  0  0  0  0  0  0  0  0  0  0
    0.9300  -33.5136   -8.6379 H   0  0  0  0  0  0  0  0  0  0  0  0
   15.1066  -29.5053  -10.1613 H   0  0  0  0  0  0  0  0  0  0  0  0
    6.2608  -23.2260  -12.9031 H   0  0  0  0  0  0  0  0  0  0  0  0
    4.9544  -22.9099   -8.0473 H   0  0  0  0  0  0  0  0  0  0  0  0
  1  3  2  0  0  0  0
  1  7  1  0  0  0  0
  2  4  2  0  0  0  0
  2  8  1  0  0  0  0
  3  9  1  0  0  0  0
  4 10  1  0  0  0  0
  5  7  2  0  0  0  0
  5 11  1  0  0  0  0
  6  8  2  0  0  0  0
  6 12  1  0  0  0  0
  7 13  1  0  0  0  0
  8 14  1  0  0  0  0
  9 11  2  0  0  0  0
  9 27  1  0  0  0  0
 10 12  2  0  0  0  0
 10 28  1  0  0  0  0
 11 29  1  0  0  0  0
 12 30  1  0  0  0  0
 13 15  2  0  0  0  0
 14 16  2  0  0  0  0
 15 17  1  0  0  0  0
 16 18  1  0  0  0  0
 17 23  2  0  0  0  0
 17 33  1  0  0  0  0
 18 24  2  0  0  0  0
 18 34  1  0  0  0  0
 19 21  1  0  0  0  0
 19 25  2  0  0  0  0
 19 31  1  0  0  0  0
 20 22  1  0  0  0  0
 20 26  2  0  0  0  0
 20 32  1  0  0  0  0
 21 22  1  0  0  0  0
 21 33  1  0  0  0  0
 22 34  1  0  0  0  0
  1 35  1  0  0  0  0
  2 36  1  0  0  0  0
  3 37  1  0  0  0  0
  4 38  1  0  0  0  0
  5 39  1  0  0  0  0
  6 40  1  0  0  0  0
 13 41  1  0  0  0  0
 14 42  1  0  0  0  0
 15 43  1  0  0  0  0
 16 44  1  0  0  0  0
 21 45  1  0  0  0  0
 22 46  1  0  0  0  0
 27 47  1  0  0  0  0
 28 48  1  0  0  0  0
 29 49  1  0  0  0  0
 30 50  1  0  0  0  0
 31 51  1  0  0  0  0
 32 52  1  0  0  0  0
M  END
> <Hybrid2>
-5.280195236206055

> <Hybrid2>
-4.888804

$$$$
CHEMBL108760
  -OEChem-02152218473D

 26 27  0     0  0  0  0  0  0999 V2000
    5.4999  -28.7187   -7.8643 C   0  0  0  0  0  0  0  0  0  0  0  0
    5.8115  -30.0516   -8.1474 C   0  0  0  0  0  0  0  0  0  0  0  0
    7.7531  -29.3829   -9.4435 C   0  0  0  0  0  0  0  0  0  0  0  0
    7.3203  -25.7858   -8.9599 C   0  0  0  0  0  0  0  0  0  0  0  0
    7.4589  -28.0320   -9.1715 C   0  0  0  0  0  0  0  0  0  0  0  0
    8.0668  -26.7945   -9.5238 C   0  0  0  0  0  0  0  0  0  0  0  0
    6.3413  -27.7317   -8.3897 C   0  0  0  0  0  0  0  0  0  0  0  0
    6.9203  -30.3809   -8.9246 C   0  0  0  0  0  0  0  0  0  0  0  0
   10.4698  -27.0838   -9.9809 C   0  0  0  0  0  0  0  0  0  0  0  0
    9.2241  -26.5876  -10.3060 C   0  0  0  0  0  0  0  0  0  0  0  0
   11.7114  -26.8862  -10.7670 C   0  0  0  0  0  0  0  0  0  0  0  0
   12.9487  -27.5225  -10.2141 C   0  0  0  0  0  0  0  0  0  0  0  0
    6.2819  -26.3609   -8.2777 N   0  0  0  0  0  0  0  0  0  0  0  0
   11.8171  -26.2401  -11.7956 O   0  0  0  0  0  0  0  0  0  0  0  0
   12.9414  -28.1623   -9.1826 O   0  0  0  0  0  0  0  0  0  0  0  0
    9.0590  -25.8091  -11.4658 O   0  0  0  0  0  0  0  0  0  0  0  0
   13.9910  -27.2393  -11.0067 O   0  0  0  0  0  0  0  0  0  0  0  0
    7.2748  -32.0350   -9.2515 Cl  0  0  0  0  0  0  0  0  0  0  0  0
    4.6364  -28.4632   -7.2592 H   0  0  0  0  0  0  0  0  0  0  0  0
    5.1686  -30.8324   -7.7466 H   0  0  0  0  0  0  0  0  0  0  0  0
    8.6170  -29.6422  -10.0501 H   0  0  0  0  0  0  0  0  0  0  0  0
    7.4295  -24.7099   -8.9798 H   0  0  0  0  0  0  0  0  0  0  0  0
   10.5772  -27.6661   -9.0697 H   0  0  0  0  0  0  0  0  0  0  0  0
    5.5742  -25.8527   -7.7655 H   0  0  0  0  0  0  0  0  0  0  0  0
    9.9031  -25.7418  -11.9048 H   0  0  0  0  0  0  0  0  0  0  0  0
   14.8297  -27.6187  -10.6675 H   0  0  0  0  0  0  0  0  0  0  0  0
  1  2  2  0  0  0  0
  1  7  1  0  0  0  0
  2  8  1  0  0  0  0
  3  5  1  0  0  0  0
  3  8  2  0  0  0  0
  4  6  2  0  0  0  0
  4 13  1  0  0  0  0
  5  6  1  0  0  0  0
  5  7  2  0  0  0  0
  6 10  1  0  0  0  0
  7 13  1  0  0  0  0
  8 18  1  0  0  0  0
  9 10  2  0  0  0  0
  9 11  1  0  0  0  0
 10 16  1  0  0  0  0
 11 12  1  0  0  0  0
 11 14  2  0  0  0  0
 12 15  2  0  0  0  0
 12 17  1  0  0  0  0
  1 19  1  0  0  0  0
  2 20  1  0  0  0  0
  3 21  1  0  0  0  0
  4 22  1  0  0  0  0
  9 23  1  0  0  0  0
 13 24  1  0  0  0  0
 16 25  1  0  0  0  0
 17 26  1  0  0  0  0
M  END
> <Hybrid2>
-6.664676189422607

> <Hybrid2>
-6.664676

$$$$
CHEMBL108760
  -OEChem-02152218473D

 26 27  0     0  0  0  0  0  0999 V2000
    5.4524  -28.0298   -7.8030 C   0  0  0  0  0  0  0  0  0  0  0  0
    5.6868  -29.3856   -8.0496 C   0  0  0  0  0  0  0  0  0  0  0  0
    7.4984  -28.8540   -9.5769 C   0  0  0  0  0  0  0  0  0  0  0  0
    7.2410  -25.2241   -9.2332 C   0  0  0  0  0  0  0  0  0  0  0  0
    7.2807  -27.4815   -9.3441 C   0  0  0  0  0  0  0  0  0  0  0  0
    7.8880  -26.2864   -9.8213 C   0  0  0  0  0  0  0  0  0  0  0  0
    6.2647  -27.1019   -8.4642 C   0  0  0  0  0  0  0  0  0  0  0  0
    6.6935  -29.7936   -8.9225 C   0  0  0  0  0  0  0  0  0  0  0  0
   10.2165  -26.6896  -10.5159 C   0  0  0  0  0  0  0  0  0  0  0  0
    8.9604  -26.1613  -10.7316 C   0  0  0  0  0  0  0  0  0  0  0  0
   11.3719  -26.5773  -11.4384 C   0  0  0  0  0  0  0  0  0  0  0  0
   12.6397  -27.2345  -10.9886 C   0  0  0  0  0  0  0  0  0  0  0  0
    6.2637  -25.7260   -8.4162 N   0  0  0  0  0  0  0  0  0  0  0  0
   11.3875  -25.9847  -12.5039 O   0  0  0  0  0  0  0  0  0  0  0  0
   12.7224  -27.8244   -9.9309 O   0  0  0  0  0  0  0  0  0  0  0  0
    8.6971  -25.4322  -11.9052 O   0  0  0  0  0  0  0  0  0  0  0  0
   13.5992  -27.0293  -11.9007 O   0  0  0  0  0  0  0  0  0  0  0  0
    6.9551  -31.4738   -9.2008 Cl  0  0  0  0  0  0  0  0  0  0  0  0
    4.6684  -27.7129   -7.1233 H   0  0  0  0  0  0  0  0  0  0  0  0
    5.0652  -30.1212   -7.5436 H   0  0  0  0  0  0  0  0  0  0  0  0
    8.2825  -29.1747  -10.2579 H   0  0  0  0  0  0  0  0  0  0  0  0
    7.3834  -24.1554   -9.3192 H   0  0  0  0  0  0  0  0  0  0  0  0
   10.4022  -27.2323   -9.5929 H   0  0  0  0  0  0  0  0  0  0  0  0
    5.6329  -25.1673   -7.8582 H   0  0  0  0  0  0  0  0  0  0  0  0
    9.4907  -25.4183  -12.4342 H   0  0  0  0  0  0  0  0  0  0  0  0
   14.4564  -27.4245  -11.6338 H   0  0  0  0  0  0  0  0  0  0  0  0
  1  2  2  0  0  0  0
  1  7  1  0  0  0  0
  2  8  1  0  0  0  0
  3  5  1  0  0  0  0
  3  8  2  0  0  0  0
  4  6  2  0  0  0  0
  4 13  1  0  0  0  0
  5  6  1  0  0  0  0
  5  7  2  0  0  0  0
  6 10  1  0  0  0  0
  7 13  1  0  0  0  0
  8 18  1  0  0  0  0
  9 10  2  0  0  0  0
  9 11  1  0  0  0  0
 10 16  1  0  0  0  0
 11 12  1  0  0  0  0
 11 14  2  0  0  0  0
 12 15  2  0  0  0  0
 12 17  1  0  0  0  0
  1 19  1  0  0  0  0
  2 20  1  0  0  0  0
  3 21  1  0  0  0  0
  4 22  1  0  0  0  0
  9 23  1  0  0  0  0
 13 24  1  0  0  0  0
 16 25  1  0  0  0  0
 17 26  1  0  0  0  0
M  END
> <Hybrid2>
-6.664676189422607

> <Hybrid2>
-6.486751

$$$$
CHEMBL212921
  -OEChem-02152218473D

 39 42  0     0  0  0  0  0  0999 V2000
    5.0628  -30.2378   -7.5384 C   0  0  0  0  0  0  0  0  0  0  0  0
    6.1358  -30.2915   -8.4165 C   0  0  0  0  0  0  0  0  0  0  0  0
   12.9109  -25.5096  -10.1812 C   0  0  0  0  0  0  0  0  0  0  0  0
   12.7710  -27.1500  -11.9495 C   0  0  0  0  0  0  0  0  0  0  0  0
   14.1879  -25.9677   -9.8573 C   0  0  0  0  0  0  0  0  0  0  0  0
   14.0480  -27.6081  -11.6256 C   0  0  0  0  0  0  0  0  0  0  0  0
    4.6843  -28.9979   -7.0638 C   0  0  0  0  0  0  0  0  0  0  0  0
    6.7974  -29.1170   -8.7942 C   0  0  0  0  0  0  0  0  0  0  0  0
    8.4874  -27.9599  -10.0080 C   0  0  0  0  0  0  0  0  0  0  0  0
    8.0416  -26.7622   -9.4840 C   0  0  0  0  0  0  0  0  0  0  0  0
   12.2024  -26.1008  -11.2273 C   0  0  0  0  0  0  0  0  0  0  0  0
    6.3320  -27.8844   -8.2497 C   0  0  0  0  0  0  0  0  0  0  0  0
    7.8872  -29.1556   -9.6837 C   0  0  0  0  0  0  0  0  0  0  0  0
    6.9739  -26.7006   -8.6100 C   0  0  0  0  0  0  0  0  0  0  0  0
   14.7565  -27.0169  -10.5794 C   0  0  0  0  0  0  0  0  0  0  0  0
    9.6195  -27.6791  -10.8893 C   0  0  0  0  0  0  0  0  0  0  0  0
    8.8809  -25.6906  -10.0201 C   0  0  0  0  0  0  0  0  0  0  0  0
    7.7670  -30.7454  -11.4484 C   0  0  0  0  0  0  0  0  0  0  0  0
   10.8281  -25.6077  -11.5770 C   0  0  0  0  0  0  0  0  0  0  0  0
    5.2915  -27.8365   -7.3992 N   0  0  0  0  0  0  0  0  0  0  0  0
    9.7959  -26.3122  -10.8428 N   0  0  0  0  0  0  0  0  0  0  0  0
   10.2385  -28.5233  -11.5102 O   0  0  0  0  0  0  0  0  0  0  0  0
    8.7449  -24.5112   -9.7526 O   0  0  0  0  0  0  0  0  0  0  0  0
    6.5568  -25.5055   -8.1102 O   0  0  0  0  0  0  0  0  0  0  0  0
    8.3441  -30.3209  -10.2134 O   0  0  0  0  0  0  0  0  0  0  0  0
   15.9839  -27.4552  -10.2702 F   0  0  0  0  0  0  0  0  0  0  0  0
    4.5407  -31.1381   -7.2359 H   0  0  0  0  0  0  0  0  0  0  0  0
    6.4437  -31.2625   -8.7975 H   0  0  0  0  0  0  0  0  0  0  0  0
   12.4758  -24.6921   -9.6123 H   0  0  0  0  0  0  0  0  0  0  0  0
   12.2265  -27.6165  -12.7664 H   0  0  0  0  0  0  0  0  0  0  0  0
   14.7398  -25.5072   -9.0434 H   0  0  0  0  0  0  0  0  0  0  0  0
   14.4908  -28.4251  -12.1873 H   0  0  0  0  0  0  0  0  0  0  0  0
    3.8519  -28.8982   -6.3747 H   0  0  0  0  0  0  0  0  0  0  0  0
    8.2219  -31.6893  -11.7586 H   0  0  0  0  0  0  0  0  0  0  0  0
    7.9330  -29.9805  -12.2112 H   0  0  0  0  0  0  0  0  0  0  0  0
    6.6931  -30.8899  -11.3079 H   0  0  0  0  0  0  0  0  0  0  0  0
   10.7324  -24.5397  -11.3526 H   0  0  0  0  0  0  0  0  0  0  0  0
   10.6250  -25.7349  -12.6456 H   0  0  0  0  0  0  0  0  0  0  0  0
    7.1061  -24.7850   -8.4582 H   0  0  0  0  0  0  0  0  0  0  0  0
  1  2  2  0  0  0  0
  1  7  1  0  0  0  0
  2  8  1  0  0  0  0
  3  5  2  0  0  0  0
  3 11  1  0  0  0  0
  4  6  1  0  0  0  0
  4 11  2  0  0  0  0
  5 15  1  0  0  0  0
  6 15  2  0  0  0  0
  7 20  2  0  0  0  0
  8 12  2  0  0  0  0
  8 13  1  0  0  0  0
  9 10  1  0  0  0  0
  9 13  2  0  0  0  0
  9 16  1  0  0  0  0
 10 14  2  0  0  0  0
 10 17  1  0  0  0  0
 11 19  1  0  0  0  0
 12 14  1  0  0  0  0
 12 20  1  0  0  0  0
 13 25  1  0  0  0  0
 14 24  1  0  0  0  0
 15 26  1  0  0  0  0
 16 21  1  0  0  0  0
 16 22  2  0  0  0  0
 17 21  1  0  0  0  0
 17 23  2  0  0  0  0
 18 25  1  0  0  0  0
 19 21  1  0  0  0  0
  1 27  1  0  0  0  0
  2 28  1  0  0  0  0
  3 29  1  0  0  0  0
  4 30  1  0  0  0  0
  5 31  1  0  0  0  0
  6 32  1  0  0  0  0
  7 33  1  0  0  0  0
 18 34  1  0  0  0  0
 18 35  1  0  0  0  0
 18 36  1  0  0  0  0
 19 37  1  0  0  0  0
 19 38  1  0  0  0  0
 24 39  1  0  0  0  0
M  END
> <Hybrid2>
-3.896756649017334

> <Hybrid2>
-3.896757

$$$$
CHEMBL212921
  -OEChem-02152218473D

 39 42  0     0  0  0  0  0  0999 V2000
   14.2876  -27.0502  -12.8449 C   0  0  0  0  0  0  0  0  0  0  0  0
   12.9494  -26.6891  -12.9083 C   0  0  0  0  0  0  0  0  0  0  0  0
    5.4932  -27.7628   -9.3860 C   0  0  0  0  0  0  0  0  0  0  0  0
    6.5269  -28.4216   -7.3041 C   0  0  0  0  0  0  0  0  0  0  0  0
    4.7352  -28.9337   -9.3802 C   0  0  0  0  0  0  0  0  0  0  0  0
    5.7689  -29.5925   -7.2982 C   0  0  0  0  0  0  0  0  0  0  0  0
   14.7834  -27.4617  -11.6239 C   0  0  0  0  0  0  0  0  0  0  0  0
   12.1482  -26.7472  -11.7617 C   0  0  0  0  0  0  0  0  0  0  0  0
   10.0657  -26.4665  -10.6424 C   0  0  0  0  0  0  0  0  0  0  0  0
   10.6449  -26.8897   -9.4620 C   0  0  0  0  0  0  0  0  0  0  0  0
    6.3891  -27.5067   -8.3480 C   0  0  0  0  0  0  0  0  0  0  0  0
   12.7524  -27.1850  -10.5470 C   0  0  0  0  0  0  0  0  0  0  0  0
   10.7894  -26.3840  -11.8105 C   0  0  0  0  0  0  0  0  0  0  0  0
   11.9760  -27.2514   -9.3911 C   0  0  0  0  0  0  0  0  0  0  0  0
    4.8730  -29.8485   -8.3363 C   0  0  0  0  0  0  0  0  0  0  0  0
    8.6601  -26.1643  -10.3781 C   0  0  0  0  0  0  0  0  0  0  0  0
    9.6201  -26.8662   -8.4183 C   0  0  0  0  0  0  0  0  0  0  0  0
    9.6011  -26.9651  -13.7869 C   0  0  0  0  0  0  0  0  0  0  0  0
    7.2048  -26.2462   -8.3533 C   0  0  0  0  0  0  0  0  0  0  0  0
   14.0496  -27.5344  -10.4897 N   0  0  0  0  0  0  0  0  0  0  0  0
    8.4708  -26.4223   -9.0367 N   0  0  0  0  0  0  0  0  0  0  0  0
    7.8687  -25.7693  -11.2141 O   0  0  0  0  0  0  0  0  0  0  0  0
    9.8108  -27.1860   -7.2596 O   0  0  0  0  0  0  0  0  0  0  0  0
   12.5190  -27.6651   -8.2137 O   0  0  0  0  0  0  0  0  0  0  0  0
   10.1962  -25.9654  -12.9594 O   0  0  0  0  0  0  0  0  0  0  0  0
    4.1432  -30.9717   -8.3292 F   0  0  0  0  0  0  0  0  0  0  0  0
   14.9210  -27.0102  -13.7234 H   0  0  0  0  0  0  0  0  0  0  0  0
   12.5468  -26.3633  -13.8646 H   0  0  0  0  0  0  0  0  0  0  0  0
    5.3795  -27.0563  -10.2041 H   0  0  0  0  0  0  0  0  0  0  0  0
    7.2222  -28.2304   -6.4909 H   0  0  0  0  0  0  0  0  0  0  0  0
    4.0373  -29.1328  -10.1878 H   0  0  0  0  0  0  0  0  0  0  0  0
    5.8762  -30.3051   -6.4859 H   0  0  0  0  0  0  0  0  0  0  0  0
   15.8227  -27.7553  -11.5177 H   0  0  0  0  0  0  0  0  0  0  0  0
    9.1638  -26.4945  -14.6709 H   0  0  0  0  0  0  0  0  0  0  0  0
    8.8287  -27.4939  -13.2227 H   0  0  0  0  0  0  0  0  0  0  0  0
   10.3719  -27.6741  -14.0980 H   0  0  0  0  0  0  0  0  0  0  0  0
    6.6614  -25.4369   -8.8530 H   0  0  0  0  0  0  0  0  0  0  0  0
    7.4189  -25.9125   -7.3325 H   0  0  0  0  0  0  0  0  0  0  0  0
   11.8489  -27.6539   -7.5117 H   0  0  0  0  0  0  0  0  0  0  0  0
  1  2  2  0  0  0  0
  1  7  1  0  0  0  0
  2  8  1  0  0  0  0
  3  5  2  0  0  0  0
  3 11  1  0  0  0  0
  4  6  1  0  0  0  0
  4 11  2  0  0  0  0
  5 15  1  0  0  0  0
  6 15  2  0  0  0  0
  7 20  2  0  0  0  0
  8 12  2  0  0  0  0
  8 13  1  0  0  0  0
  9 10  1  0  0  0  0
  9 13  2  0  0  0  0
  9 16  1  0  0  0  0
 10 14  2  0  0  0  0
 10 17  1  0  0  0  0
 11 19  1  0  0  0  0
 12 14  1  0  0  0  0
 12 20  1  0  0  0  0
 13 25  1  0  0  0  0
 14 24  1  0  0  0  0
 15 26  1  0  0  0  0
 16 21  1  0  0  0  0
 16 22  2  0  0  0  0
 17 21  1  0  0  0  0
 17 23  2  0  0  0  0
 18 25  1  0  0  0  0
 19 21  1  0  0  0  0
  1 27  1  0  0  0  0
  2 28  1  0  0  0  0
  3 29  1  0  0  0  0
  4 30  1  0  0  0  0
  5 31  1  0  0  0  0
  6 32  1  0  0  0  0
  7 33  1  0  0  0  0
 18 34  1  0  0  0  0
 18 35  1  0  0  0  0
 18 36  1  0  0  0  0
 19 37  1  0  0  0  0
 19 38  1  0  0  0  0
 24 39  1  0  0  0  0
M  END
> <Hybrid2>
-3.896756649017334

> <Hybrid2>
-3.483542

$$$$
CHEMBL209958
  -OEChem-02152218473D

 36 39  0     0  0  0  0  0  0999 V2000
    5.0280  -30.2831   -7.4639 C   0  0  0  0  0  0  0  0  0  0  0  0
    6.0761  -30.4375   -8.3599 C   0  0  0  0  0  0  0  0  0  0  0  0
   12.9654  -26.6322  -12.8751 C   0  0  0  0  0  0  0  0  0  0  0  0
   12.2755  -26.8921  -10.5744 C   0  0  0  0  0  0  0  0  0  0  0  0
   14.2596  -27.0224  -12.5312 C   0  0  0  0  0  0  0  0  0  0  0  0
   13.5697  -27.2824  -10.2304 C   0  0  0  0  0  0  0  0  0  0  0  0
    4.6383  -28.9967   -7.1486 C   0  0  0  0  0  0  0  0  0  0  0  0
    6.7027  -29.3141   -8.9125 C   0  0  0  0  0  0  0  0  0  0  0  0
    8.3333  -28.3043  -10.3231 C   0  0  0  0  0  0  0  0  0  0  0  0
    7.8787  -27.0542   -9.9511 C   0  0  0  0  0  0  0  0  0  0  0  0
   11.9733  -26.5670  -11.8967 C   0  0  0  0  0  0  0  0  0  0  0  0
    6.2283  -28.0269   -8.5243 C   0  0  0  0  0  0  0  0  0  0  0  0
    7.7670  -29.4548   -9.8224 C   0  0  0  0  0  0  0  0  0  0  0  0
    6.8356  -26.8924   -9.0604 C   0  0  0  0  0  0  0  0  0  0  0  0
   14.5618  -27.3475  -11.2088 C   0  0  0  0  0  0  0  0  0  0  0  0
    9.4336  -28.1268  -11.2691 C   0  0  0  0  0  0  0  0  0  0  0  0
    8.6804  -26.0513  -10.6523 C   0  0  0  0  0  0  0  0  0  0  0  0
   10.5798  -26.1478  -12.2664 C   0  0  0  0  0  0  0  0  0  0  0  0
    5.2120  -27.8815   -7.6559 N   0  0  0  0  0  0  0  0  0  0  0  0
    9.5836  -26.7634  -11.4123 N   0  0  0  0  0  0  0  0  0  0  0  0
   10.0515  -29.0369  -11.7899 O   0  0  0  0  0  0  0  0  0  0  0  0
    8.5283  -24.8489  -10.5416 O   0  0  0  0  0  0  0  0  0  0  0  0
    8.2318  -30.6734  -10.2048 O   0  0  0  0  0  0  0  0  0  0  0  0
    6.4090  -25.6477   -8.7129 O   0  0  0  0  0  0  0  0  0  0  0  0
   15.8040  -27.7249  -10.8789 F   0  0  0  0  0  0  0  0  0  0  0  0
    4.5331  -31.1426   -7.0270 H   0  0  0  0  0  0  0  0  0  0  0  0
    6.3924  -31.4458   -8.6164 H   0  0  0  0  0  0  0  0  0  0  0  0
   12.7397  -26.3801  -13.9080 H   0  0  0  0  0  0  0  0  0  0  0  0
   11.5089  -26.8445   -9.8053 H   0  0  0  0  0  0  0  0  0  0  0  0
   15.0318  -27.0739  -13.2928 H   0  0  0  0  0  0  0  0  0  0  0  0
   13.8055  -27.5351   -9.2009 H   0  0  0  0  0  0  0  0  0  0  0  0
    3.8243  -28.8184   -6.4535 H   0  0  0  0  0  0  0  0  0  0  0  0
   10.4691  -25.0610  -12.1847 H   0  0  0  0  0  0  0  0  0  0  0  0
   10.3487  -26.4214  -13.3012 H   0  0  0  0  0  0  0  0  0  0  0  0
    8.9648  -30.5737  -10.8340 H   0  0  0  0  0  0  0  0  0  0  0  0
    6.9334  -24.9720   -9.1715 H   0  0  0  0  0  0  0  0  0  0  0  0
  1  2  2  0  0  0  0
  1  7  1  0  0  0  0
  2  8  1  0  0  0  0
  3  5  2  0  0  0  0
  3 11  1  0  0  0  0
  4  6  1  0  0  0  0
  4 11  2  0  0  0  0
  5 15  1  0  0  0  0
  6 15  2  0  0  0  0
  7 19  2  0  0  0  0
  8 12  2  0  0  0  0
  8 13  1  0  0  0  0
  9 10  1  0  0  0  0
  9 13  2  0  0  0  0
  9 16  1  0  0  0  0
 10 14  2  0  0  0  0
 10 17  1  0  0  0  0
 11 18  1  0  0  0  0
 12 14  1  0  0  0  0
 12 19  1  0  0  0  0
 13 23  1  0  0  0  0
 14 24  1  0  0  0  0
 15 25  1  0  0  0  0
 16 20  1  0  0  0  0
 16 21  2  0  0  0  0
 17 20  1  0  0  0  0
 17 22  2  0  0  0  0
 18 20  1  0  0  0  0
  1 26  1  0  0  0  0
  2 27  1  0  0  0  0
  3 28  1  0  0  0  0
  4 29  1  0  0  0  0
  5 30  1  0  0  0  0
  6 31  1  0  0  0  0
  7 32  1  0  0  0  0
 18 33  1  0  0  0  0
 18 34  1  0  0  0  0
 23 35  1  0  0  0  0
 24 36  1  0  0  0  0
M  END
> <Hybrid2>
-5.65411901473999

> <Hybrid2>
-5.654119

$$$$
CHEMBL209958
  -OEChem-02152218473D

 36 39  0     0  0  0  0  0  0999 V2000
    4.5635  -29.7538   -7.4935 C   0  0  0  0  0  0  0  0  0  0  0  0
    5.1707  -28.5472   -7.8108 C   0  0  0  0  0  0  0  0  0  0  0  0
   13.0674  -26.6119  -12.6907 C   0  0  0  0  0  0  0  0  0  0  0  0
   12.3432  -27.1904  -10.4596 C   0  0  0  0  0  0  0  0  0  0  0  0
   14.3491  -27.0762  -12.3951 C   0  0  0  0  0  0  0  0  0  0  0  0
   13.6249  -27.6548  -10.1640 C   0  0  0  0  0  0  0  0  0  0  0  0
    5.0617  -30.8973   -8.0852 C   0  0  0  0  0  0  0  0  0  0  0  0
    6.2492  -28.5136   -8.7028 C   0  0  0  0  0  0  0  0  0  0  0  0
    7.9289  -27.3439   -9.9190 C   0  0  0  0  0  0  0  0  0  0  0  0
    8.3620  -28.5365  -10.4649 C   0  0  0  0  0  0  0  0  0  0  0  0
   12.0645  -26.6690  -11.7229 C   0  0  0  0  0  0  0  0  0  0  0  0
    6.6911  -29.7482   -9.2623 C   0  0  0  0  0  0  0  0  0  0  0  0
    6.8751  -27.2975   -9.0343 C   0  0  0  0  0  0  0  0  0  0  0  0
    7.7632  -29.7416  -10.1534 C   0  0  0  0  0  0  0  0  0  0  0  0
   14.6278  -27.5977  -11.1318 C   0  0  0  0  0  0  0  0  0  0  0  0
    8.7667  -26.2691  -10.4481 C   0  0  0  0  0  0  0  0  0  0  0  0
    9.4863  -28.2477  -11.3551 C   0  0  0  0  0  0  0  0  0  0  0  0
   10.6845  -26.1700  -12.0407 C   0  0  0  0  0  0  0  0  0  0  0  0
    6.1002  -30.9155   -8.9520 N   0  0  0  0  0  0  0  0  0  0  0  0
    9.6654  -26.8821  -11.2956 N   0  0  0  0  0  0  0  0  0  0  0  0
    8.6459  -25.0927  -10.1603 O   0  0  0  0  0  0  0  0  0  0  0  0
   10.0950  -29.0890  -11.9897 O   0  0  0  0  0  0  0  0  0  0  0  0
    6.4684  -26.1114   -8.5102 O   0  0  0  0  0  0  0  0  0  0  0  0
    8.2122  -30.9010  -10.7068 O   0  0  0  0  0  0  0  0  0  0  0  0
   15.8578  -28.0461  -10.8486 F   0  0  0  0  0  0  0  0  0  0  0  0
    3.7274  -29.7964   -6.8053 H   0  0  0  0  0  0  0  0  0  0  0  0
    4.7876  -27.6392   -7.3510 H   0  0  0  0  0  0  0  0  0  0  0  0
   12.8600  -26.2066  -13.6776 H   0  0  0  0  0  0  0  0  0  0  0  0
   11.5680  -27.2391   -9.6993 H   0  0  0  0  0  0  0  0  0  0  0  0
   15.1297  -27.0325  -13.1486 H   0  0  0  0  0  0  0  0  0  0  0  0
   13.8423  -28.0604   -9.1804 H   0  0  0  0  0  0  0  0  0  0  0  0
    4.6244  -31.8675   -7.8726 H   0  0  0  0  0  0  0  0  0  0  0  0
   10.5946  -25.1047  -11.8018 H   0  0  0  0  0  0  0  0  0  0  0  0
   10.4612  -26.2843  -13.1067 H   0  0  0  0  0  0  0  0  0  0  0  0
    7.0150  -25.3851   -8.8522 H   0  0  0  0  0  0  0  0  0  0  0  0
    8.9590  -30.7233  -11.3007 H   0  0  0  0  0  0  0  0  0  0  0  0
  1  2  2  0  0  0  0
  1  7  1  0  0  0  0
  2  8  1  0  0  0  0
  3  5  2  0  0  0  0
  3 11  1  0  0  0  0
  4  6  1  0  0  0  0
  4 11  2  0  0  0  0
  5 15  1  0  0  0  0
  6 15  2  0  0  0  0
  7 19  2  0  0  0  0
  8 12  2  0  0  0  0
  8 13  1  0  0  0  0
  9 10  1  0  0  0  0
  9 13  2  0  0  0  0
  9 16  1  0  0  0  0
 10 14  2  0  0  0  0
 10 17  1  0  0  0  0
 11 18  1  0  0  0  0
 12 14  1  0  0  0  0
 12 19  1  0  0  0  0
 13 23  1  0  0  0  0
 14 24  1  0  0  0  0
 15 25  1  0  0  0  0
 16 20  1  0  0  0  0
 16 21  2  0  0  0  0
 17 20  1  0  0  0  0
 17 22  2  0  0  0  0
 18 20  1  0  0  0  0
  1 26  1  0  0  0  0
  2 27  1  0  0  0  0
  3 28  1  0  0  0  0
  4 29  1  0  0  0  0
  5 30  1  0  0  0  0
  6 31  1  0  0  0  0
  7 32  1  0  0  0  0
 18 33  1  0  0  0  0
 18 34  1  0  0  0  0
 23 35  1  0  0  0  0
 24 36  1  0  0  0  0
M  END
> <Hybrid2>
-5.65411901473999

> <Hybrid2>
-5.597669

$$$$
CHEMBL437708
  -OEChem-02152218473D

 36 38  0     0  0  0  0  0  0999 V2000
   15.1323  -25.9400  -11.4007 C   0  0  0  0  0  0  0  0  0  0  0  0
   14.2457  -25.1468  -12.1290 C   0  0  0  0  0  0  0  0  0  0  0  0
   14.7906  -27.2537  -11.0796 C   0  0  0  0  0  0  0  0  0  0  0  0
    5.4472  -30.0461   -7.4468 C   0  0  0  0  0  0  0  0  0  0  0  0
   13.0173  -25.6674  -12.5362 C   0  0  0  0  0  0  0  0  0  0  0  0
   13.5622  -27.7742  -11.4867 C   0  0  0  0  0  0  0  0  0  0  0  0
    5.6940  -28.6588   -7.6578 C   0  0  0  0  0  0  0  0  0  0  0  0
    6.1976  -30.8389   -8.2869 C   0  0  0  0  0  0  0  0  0  0  0  0
   12.6755  -26.9811  -12.2151 C   0  0  0  0  0  0  0  0  0  0  0  0
    8.1059  -24.8796  -10.0908 C   0  0  0  0  0  0  0  0  0  0  0  0
    6.6241  -28.4440   -8.6512 C   0  0  0  0  0  0  0  0  0  0  0  0
    8.5160  -26.1001  -10.5872 C   0  0  0  0  0  0  0  0  0  0  0  0
    7.1670  -24.9309   -9.0808 C   0  0  0  0  0  0  0  0  0  0  0  0
    7.1401  -27.2027   -9.1525 C   0  0  0  0  0  0  0  0  0  0  0  0
    9.5225  -26.1877  -11.6764 C   0  0  0  0  0  0  0  0  0  0  0  0
   11.3621  -27.5382  -12.6499 C   0  0  0  0  0  0  0  0  0  0  0  0
    8.0522  -27.2854  -10.1398 N   0  0  0  0  0  0  0  0  0  0  0  0
    6.6604  -26.0792   -8.5858 N   0  0  0  0  0  0  0  0  0  0  0  0
   10.3247  -27.3205  -11.6740 N   0  0  0  0  0  0  0  0  0  0  0  0
    9.6076  -25.2713  -12.4898 O   0  0  0  0  0  0  0  0  0  0  0  0
    8.5894  -23.7057  -10.5598 O   0  0  0  0  0  0  0  0  0  0  0  0
    6.7016  -23.7670   -8.5274 O   0  0  0  0  0  0  0  0  0  0  0  0
    7.1950  -29.9112   -9.3248 S   0  0  0  0  0  0  0  0  0  0  0  0
   16.0893  -25.5349  -11.0849 H   0  0  0  0  0  0  0  0  0  0  0  0
   14.5121  -24.1243  -12.3801 H   0  0  0  0  0  0  0  0  0  0  0  0
   15.4810  -27.8718  -10.5135 H   0  0  0  0  0  0  0  0  0  0  0  0
    4.7550  -30.4429   -6.7157 H   0  0  0  0  0  0  0  0  0  0  0  0
   12.3327  -25.0420  -13.1032 H   0  0  0  0  0  0  0  0  0  0  0  0
   13.3044  -28.7988  -11.2319 H   0  0  0  0  0  0  0  0  0  0  0  0
    5.2102  -27.8641   -7.1031 H   0  0  0  0  0  0  0  0  0  0  0  0
    6.2083  -31.9184   -8.3406 H   0  0  0  0  0  0  0  0  0  0  0  0
   11.0302  -27.0802  -13.5922 H   0  0  0  0  0  0  0  0  0  0  0  0
   11.4227  -28.6207  -12.8276 H   0  0  0  0  0  0  0  0  0  0  0  0
   10.2350  -28.0062  -10.9285 H   0  0  0  0  0  0  0  0  0  0  0  0
    9.2395  -23.8597  -11.2675 H   0  0  0  0  0  0  0  0  0  0  0  0
    6.0538  -23.9686   -7.8379 H   0  0  0  0  0  0  0  0  0  0  0  0
  1  2  1  0  0  0  0
  1  3  2  0  0  0  0
  2  5  2  0  0  0  0
  3  6  1  0  0  0  0
  4  7  1  0  0  0  0
  4  8  2  0  0  0  0
  5  9  1  0  0  0  0
  6  9  2  0  0  0  0
  7 11  2  0  0  0  0
  8 23  1  0  0  0  0
  9 16  1  0  0  0  0
 10 12  1  0  0  0  0
 10 13  2  0  0  0  0
 10 21  1  0  0  0  0
 11 14  1  0  0  0  0
 11 23  1  0  0  0  0
 12 15  1  0  0  0  0
 12 17  2  0  0  0  0
 13 18  1  0  0  0  0
 13 22  1  0  0  0  0
 14 17  1  0  0  0  0
 14 18  2  0  0  0  0
 15 19  1  0  0  0  0
 15 20  2  0  0  0  0
 16 19  1  0  0  0  0
  1 24  1  0  0  0  0
  2 25  1  0  0  0  0
  3 26  1  0  0  0  0
  4 27  1  0  0  0  0
  5 28  1  0  0  0  0
  6 29  1  0  0  0  0
  7 30  1  0  0  0  0
  8 31  1  0  0  0  0
 16 32  1  0  0  0  0
 16 33  1  0  0  0  0
 19 34  1  0  0  0  0
 21 35  1  0  0  0  0
 22 36  1  0  0  0  0
M  END
> <Hybrid2>
-4.621395587921143

> <Hybrid2>
-4.621396

$$$$
CHEMBL437708
  -OEChem-02152218473D

 36 38  0     0  0  0  0  0  0999 V2000
   15.1323  -25.9400  -11.4007 C   0  0  0  0  0  0  0  0  0  0  0  0
   14.2457  -25.1468  -12.1290 C   0  0  0  0  0  0  0  0  0  0  0  0
   14.7906  -27.2537  -11.0796 C   0  0  0  0  0  0  0  0  0  0  0  0
    5.4472  -30.0461   -7.4468 C   0  0  0  0  0  0  0  0  0  0  0  0
   13.0173  -25.6674  -12.5362 C   0  0  0  0  0  0  0  0  0  0  0  0
   13.5622  -27.7742  -11.4867 C   0  0  0  0  0  0  0  0  0  0  0  0
    5.6940  -28.6588   -7.6578 C   0  0  0  0  0  0  0  0  0  0  0  0
    6.1976  -30.8389   -8.2869 C   0  0  0  0  0  0  0  0  0  0  0  0
   12.6755  -26.9811  -12.2151 C   0  0  0  0  0  0  0  0  0  0  0  0
    8.1059  -24.8796  -10.0908 C   0  0  0  0  0  0  0  0  0  0  0  0
    6.6241  -28.4440   -8.6512 C   0  0  0  0  0  0  0  0  0  0  0  0
    8.5160  -26.1001  -10.5872 C   0  0  0  0  0  0  0  0  0  0  0  0
    7.1670  -24.9309   -9.0808 C   0  0  0  0  0  0  0  0  0  0  0  0
    7.1401  -27.2027   -9.1525 C   0  0  0  0  0  0  0  0  0  0  0  0
    9.5225  -26.1877  -11.6764 C   0  0  0  0  0  0  0  0  0  0  0  0
   11.3621  -27.5382  -12.6499 C   0  0  0  0  0  0  0  0  0  0  0  0
    8.0522  -27.2854  -10.1398 N   0  0  0  0  0  0  0  0  0  0  0  0
    6.6604  -26.0792   -8.5858 N   0  0  0  0  0  0  0  0  0  0  0  0
   10.3247  -27.3205  -11.6740 N   0  0  0  0  0  0  0  0  0  0  0  0
    9.6076  -25.2713  -12.4898 O   0  0  0  0  0  0  0  0  0  0  0  0
    8.5894  -23.7057  -10.5598 O   0  0  0  0  0  0  0  0  0  0  0  0
    6.7016  -23.7670   -8.5274 O   0  0  0  0  0  0  0  0  0  0  0  0
    7.1950  -29.9112   -9.3248 S   0  0  0  0  0  0  0  0  0  0  0  0
   16.0893  -25.5349  -11.0849 H   0  0  0  0  0  0  0  0  0  0  0  0
   14.5121  -24.1243  -12.3801 H   0  0  0  0  0  0  0  0  0  0  0  0
   15.4810  -27.8718  -10.5135 H   0  0  0  0  0  0  0  0  0  0  0  0
    4.7550  -30.4429   -6.7157 H   0  0  0  0  0  0  0  0  0  0  0  0
   12.3327  -25.0420  -13.1032 H   0  0  0  0  0  0  0  0  0  0  0  0
   13.3044  -28.7988  -11.2319 H   0  0  0  0  0  0  0  0  0  0  0  0
    5.2102  -27.8641   -7.1031 H   0  0  0  0  0  0  0  0  0  0  0  0
    6.2083  -31.9184   -8.3406 H   0  0  0  0  0  0  0  0  0  0  0  0
   11.0302  -27.0802  -13.5922 H   0  0  0  0  0  0  0  0  0  0  0  0
   11.4227  -28.6207  -12.8276 H   0  0  0  0  0  0  0  0  0  0  0  0
   10.2350  -28.0062  -10.9285 H   0  0  0  0  0  0  0  0  0  0  0  0
    9.2395  -23.8597  -11.2675 H   0  0  0  0  0  0  0  0  0  0  0  0
    6.0538  -23.9686   -7.8379 H   0  0  0  0  0  0  0  0  0  0  0  0
  1  2  1  0  0  0  0
  1  3  2  0  0  0  0
  2  5  2  0  0  0  0
  3  6  1  0  0  0  0
  4  7  1  0  0  0  0
  4  8  2  0  0  0  0
  5  9  1  0  0  0  0
  6  9  2  0  0  0  0
  7 11  2  0  0  0  0
  8 23  1  0  0  0  0
  9 16  1  0  0  0  0
 10 12  1  0  0  0  0
 10 13  2  0  0  0  0
 10 21  1  0  0  0  0
 11 14  1  0  0  0  0
 11 23  1  0  0  0  0
 12 15  1  0  0  0  0
 12 17  2  0  0  0  0
 13 18  1  0  0  0  0
 13 22  1  0  0  0  0
 14 17  1  0  0  0  0
 14 18  2  0  0  0  0
 15 19  1  0  0  0  0
 15 20  2  0  0  0  0
 16 19  1  0  0  0  0
  1 24  1  0  0  0  0
  2 25  1  0  0  0  0
  3 26  1  0  0  0  0
  4 27  1  0  0  0  0
  5 28  1  0  0  0  0
  6 29  1  0  0  0  0
  7 30  1  0  0  0  0
  8 31  1  0  0  0  0
 16 32  1  0  0  0  0
 16 33  1  0  0  0  0
 19 34  1  0  0  0  0
 21 35  1  0  0  0  0
 22 36  1  0  0  0  0
M  END
> <Hybrid2>
-4.621395587921143

> <Hybrid2>
-4.621394

$$$$
CHEMBL413552
  -OEChem-02152218473D

 33 35  0     0  0  0  0  0  0999 V2000
   11.7892  -27.7795   -9.6379 C   0  0  0  0  0  0  0  0  0  0  0  0
   13.1131  -27.7968  -10.0769 C   0  0  0  0  0  0  0  0  0  0  0  0
   11.0991  -26.8449  -11.7562 C   0  0  0  0  0  0  0  0  0  0  0  0
    7.1543  -29.9510   -8.9607 C   0  0  0  0  0  0  0  0  0  0  0  0
   10.7822  -27.3036  -10.4776 C   0  0  0  0  0  0  0  0  0  0  0  0
    6.7573  -27.5746   -9.1224 C   0  0  0  0  0  0  0  0  0  0  0  0
    7.6079  -28.6680   -9.2685 C   0  0  0  0  0  0  0  0  0  0  0  0
   13.4300  -27.3381  -11.3555 C   0  0  0  0  0  0  0  0  0  0  0  0
   12.4230  -26.8621  -12.1952 C   0  0  0  0  0  0  0  0  0  0  0  0
    5.8483  -30.1348   -8.5061 C   0  0  0  0  0  0  0  0  0  0  0  0
    5.4485  -27.7546   -8.6676 C   0  0  0  0  0  0  0  0  0  0  0  0
    4.9973  -29.0386   -8.3600 C   0  0  0  0  0  0  0  0  0  0  0  0
    9.3832  -27.2880  -10.0146 C   0  0  0  0  0  0  0  0  0  0  0  0
    7.2598  -26.2330   -9.4560 C   0  0  0  0  0  0  0  0  0  0  0  0
    8.6639  -26.1543   -9.9260 C   0  0  0  0  0  0  0  0  0  0  0  0
    6.5575  -25.2361   -9.3532 O   0  0  0  0  0  0  0  0  0  0  0  0
    8.9003  -28.5509   -9.7105 O   0  0  0  0  0  0  0  0  0  0  0  0
   14.7268  -27.3603  -11.7720 O   0  0  0  0  0  0  0  0  0  0  0  0
   12.7211  -26.4109  -13.4455 O   0  0  0  0  0  0  0  0  0  0  0  0
    5.4155  -31.3922   -8.2088 O   0  0  0  0  0  0  0  0  0  0  0  0
    4.5869  -26.7096   -8.5112 O   0  0  0  0  0  0  0  0  0  0  0  0
    3.7217  -29.2270   -7.9148 O   0  0  0  0  0  0  0  0  0  0  0  0
    9.1647  -24.9167  -10.2677 O   0  0  0  0  0  0  0  0  0  0  0  0
   11.5574  -28.1413   -8.6391 H   0  0  0  0  0  0  0  0  0  0  0  0
   13.8928  -28.1687   -9.4177 H   0  0  0  0  0  0  0  0  0  0  0  0
   10.3200  -26.4725  -12.4178 H   0  0  0  0  0  0  0  0  0  0  0  0
    7.8157  -30.8064   -9.0746 H   0  0  0  0  0  0  0  0  0  0  0  0
   15.2972  -27.7178  -11.0734 H   0  0  0  0  0  0  0  0  0  0  0  0
   11.9145  -26.1163  -13.8967 H   0  0  0  0  0  0  0  0  0  0  0  0
    6.1244  -32.0358   -8.3644 H   0  0  0  0  0  0  0  0  0  0  0  0
    5.0217  -25.8784   -8.7570 H   0  0  0  0  0  0  0  0  0  0  0  0
    3.5631  -30.1684   -7.7462 H   0  0  0  0  0  0  0  0  0  0  0  0
    8.4918  -24.2414  -10.1316 H   0  0  0  0  0  0  0  0  0  0  0  0
  1  2  2  0  0  0  0
  1  5  1  0  0  0  0
  2  8  1  0  0  0  0
  3  5  2  0  0  0  0
  3  9  1  0  0  0  0
  4  7  1  0  0  0  0
  4 10  2  0  0  0  0
  5 13  1  0  0  0  0
  6  7  2  0  0  0  0
  6 11  1  0  0  0  0
  6 14  1  0  0  0  0
  7 17  1  0  0  0  0
  8  9  2  0  0  0  0
  8 18  1  0  0  0  0
  9 19  1  0  0  0  0
 10 12  1  0  0  0  0
 10 20  1  0  0  0  0
 11 12  2  0  0  0  0
 11 21  1  0  0  0  0
 12 22  1  0  0  0  0
 13 15  2  0  0  0  0
 13 17  1  0  0  0  0
 14 15  1  0  0  0  0
 14 16  2  0  0  0  0
 15 23  1  0  0  0  0
  1 24  1  0  0  0  0
  2 25  1  0  0  0  0
  3 26  1  0  0  0  0
  4 27  1  0  0  0  0
 18 28  1  0  0  0  0
 19 29  1  0  0  0  0
 20 30  1  0  0  0  0
 21 31  1  0  0  0  0
 22 32  1  0  0  0  0
 23 33  1  0  0  0  0
M  END
> <Hybrid2>
-6.433053016662598

> <Hybrid2>
-6.433053

$$$$
CHEMBL413552
  -OEChem-02152218473D

 33 35  0     0  0  0  0  0  0999 V2000
   11.1190  -26.2833  -12.8186 C   0  0  0  0  0  0  0  0  0  0  0  0
   12.3270  -26.4248  -13.5014 C   0  0  0  0  0  0  0  0  0  0  0  0
   12.1375  -27.1963  -10.8271 C   0  0  0  0  0  0  0  0  0  0  0  0
    7.5711  -28.9393   -9.1591 C   0  0  0  0  0  0  0  0  0  0  0  0
   11.0242  -26.6690  -11.4814 C   0  0  0  0  0  0  0  0  0  0  0  0
    7.3341  -26.5451   -9.3654 C   0  0  0  0  0  0  0  0  0  0  0  0
    8.0530  -27.7119   -9.6150 C   0  0  0  0  0  0  0  0  0  0  0  0
   13.4403  -26.9521  -12.8470 C   0  0  0  0  0  0  0  0  0  0  0  0
   13.3456  -27.3378  -11.5099 C   0  0  0  0  0  0  0  0  0  0  0  0
    6.3692  -28.9941   -8.4530 C   0  0  0  0  0  0  0  0  0  0  0  0
    6.1299  -26.5957   -8.6587 C   0  0  0  0  0  0  0  0  0  0  0  0
    5.6503  -27.8244   -8.2034 C   0  0  0  0  0  0  0  0  0  0  0  0
    9.7485  -26.5169  -10.7595 C   0  0  0  0  0  0  0  0  0  0  0  0
    7.8632  -25.2644   -9.8590 C   0  0  0  0  0  0  0  0  0  0  0  0
    9.1499  -25.3233  -10.5936 C   0  0  0  0  0  0  0  0  0  0  0  0
    7.2735  -24.2079   -9.6753 O   0  0  0  0  0  0  0  0  0  0  0  0
    9.2388  -27.7220  -10.3027 O   0  0  0  0  0  0  0  0  0  0  0  0
   14.6142  -27.0851  -13.5252 O   0  0  0  0  0  0  0  0  0  0  0  0
   14.4263  -27.8548  -10.8612 O   0  0  0  0  0  0  0  0  0  0  0  0
    5.9077  -30.1981   -8.0128 O   0  0  0  0  0  0  0  0  0  0  0  0
    5.3986  -25.4758   -8.3943 O   0  0  0  0  0  0  0  0  0  0  0  0
    4.4759  -27.8866   -7.5121 O   0  0  0  0  0  0  0  0  0  0  0  0
    9.6677  -24.1464  -11.0894 O   0  0  0  0  0  0  0  0  0  0  0  0
   10.2600  -25.8697  -13.3415 H   0  0  0  0  0  0  0  0  0  0  0  0
   12.3940  -26.1226  -14.5430 H   0  0  0  0  0  0  0  0  0  0  0  0
   12.0727  -27.4992   -9.7843 H   0  0  0  0  0  0  0  0  0  0  0  0
    8.1295  -29.8517   -9.3533 H   0  0  0  0  0  0  0  0  0  0  0  0
   14.5113  -26.7729  -14.4379 H   0  0  0  0  0  0  0  0  0  0  0  0
   14.1948  -28.0713   -9.9444 H   0  0  0  0  0  0  0  0  0  0  0  0
    6.5206  -30.9053   -8.2679 H   0  0  0  0  0  0  0  0  0  0  0  0
    5.8394  -24.6944   -8.7622 H   0  0  0  0  0  0  0  0  0  0  0  0
    4.2815  -28.8043   -7.2672 H   0  0  0  0  0  0  0  0  0  0  0  0
    9.0885  -23.4114  -10.8619 H   0  0  0  0  0  0  0  0  0  0  0  0
  1  2  2  0  0  0  0
  1  5  1  0  0  0  0
  2  8  1  0  0  0  0
  3  5  2  0  0  0  0
  3  9  1  0  0  0  0
  4  7  1  0  0  0  0
  4 10  2  0  0  0  0
  5 13  1  0  0  0  0
  6  7  2  0  0  0  0
  6 11  1  0  0  0  0
  6 14  1  0  0  0  0
  7 17  1  0  0  0  0
  8  9  2  0  0  0  0
  8 18  1  0  0  0  0
  9 19  1  0  0  0  0
 10 12  1  0  0  0  0
 10 20  1  0  0  0  0
 11 12  2  0  0  0  0
 11 21  1  0  0  0  0
 12 22  1  0  0  0  0
 13 15  2  0  0  0  0
 13 17  1  0  0  0  0
 14 15  1  0  0  0  0
 14 16  2  0  0  0  0
 15 23  1  0  0  0  0
  1 24  1  0  0  0  0
  2 25  1  0  0  0  0
  3 26  1  0  0  0  0
  4 27  1  0  0  0  0
 18 28  1  0  0  0  0
 19 29  1  0  0  0  0
 20 30  1  0  0  0  0
 21 31  1  0  0  0  0
 22 32  1  0  0  0  0
 23 33  1  0  0  0  0
M  END
> <Hybrid2>
-6.433053016662598

> <Hybrid2>
-6.066004

$$$$
CHEMBL143614
  -OEChem-02152218473D

 32 33  0     0  0  0  0  0  0999 V2000
    4.7732  -30.5456   -8.7779 C   0  0  0  0  0  0  0  0  0  0  0  0
    4.1754  -29.2961   -8.6143 C   0  0  0  0  0  0  0  0  0  0  0  0
    6.1597  -30.6457   -8.8932 C   0  0  0  0  0  0  0  0  0  0  0  0
    4.9640  -28.1465   -8.5663 C   0  0  0  0  0  0  0  0  0  0  0  0
    6.9483  -29.4962   -8.8452 C   0  0  0  0  0  0  0  0  0  0  0  0
    9.4493  -27.0591   -9.8973 C   0  0  0  0  0  0  0  0  0  0  0  0
    8.9694  -26.3042  -12.0425 C   0  0  0  0  0  0  0  0  0  0  0  0
    9.9545  -26.7638  -11.1964 C   0  0  0  0  0  0  0  0  0  0  0  0
    6.3505  -28.2466   -8.6817 C   0  0  0  0  0  0  0  0  0  0  0  0
    8.0972  -26.8136   -9.7999 C   0  0  0  0  0  0  0  0  0  0  0  0
   11.3738  -26.9202  -11.6284 C   0  0  0  0  0  0  0  0  0  0  0  0
   13.8032  -27.5635  -11.1278 C   0  0  0  0  0  0  0  0  0  0  0  0
   14.8302  -28.0402  -10.1401 C   0  0  0  0  0  0  0  0  0  0  0  0
    7.2107  -26.9939   -8.6296 C   0  0  0  0  0  0  0  0  0  0  0  0
   12.3866  -27.4344  -10.6222 C   0  0  0  0  0  0  0  0  0  0  0  0
   11.6854  -26.6117  -12.7760 O   0  0  0  0  0  0  0  0  0  0  0  0
   14.1890  -27.3393  -12.2651 O   0  0  0  0  0  0  0  0  0  0  0  0
   14.5574  -28.2463   -8.9750 O   0  0  0  0  0  0  0  0  0  0  0  0
   16.0276  -28.1295  -10.7330 O   0  0  0  0  0  0  0  0  0  0  0  0
    7.4426  -26.2299  -11.2706 S   0  0  0  0  0  0  0  0  0  0  0  0
    4.1591  -31.4407   -8.8139 H   0  0  0  0  0  0  0  0  0  0  0  0
    3.0959  -29.2181   -8.5234 H   0  0  0  0  0  0  0  0  0  0  0  0
    6.6256  -31.6185   -9.0194 H   0  0  0  0  0  0  0  0  0  0  0  0
    4.4894  -27.1771   -8.4388 H   0  0  0  0  0  0  0  0  0  0  0  0
    8.0278  -29.5838   -8.9360 H   0  0  0  0  0  0  0  0  0  0  0  0
   10.0469  -27.4327   -9.0747 H   0  0  0  0  0  0  0  0  0  0  0  0
    9.0663  -26.0059  -13.0776 H   0  0  0  0  0  0  0  0  0  0  0  0
    6.5428  -26.1191   -8.4963 H   0  0  0  0  0  0  0  0  0  0  0  0
    7.7934  -27.0112   -7.6867 H   0  0  0  0  0  0  0  0  0  0  0  0
   12.0804  -28.4308  -10.2861 H   0  0  0  0  0  0  0  0  0  0  0  0
   12.3965  -26.7354   -9.7785 H   0  0  0  0  0  0  0  0  0  0  0  0
   16.7339  -28.3967  -10.1070 H   0  0  0  0  0  0  0  0  0  0  0  0
  1  2  1  0  0  0  0
  1  3  2  0  0  0  0
  2  4  2  0  0  0  0
  3  5  1  0  0  0  0
  4  9  1  0  0  0  0
  5  9  2  0  0  0  0
  6  8  1  0  0  0  0
  6 10  2  0  0  0  0
  7  8  2  0  0  0  0
  7 20  1  0  0  0  0
  8 11  1  0  0  0  0
  9 14  1  0  0  0  0
 10 14  1  0  0  0  0
 10 20  1  0  0  0  0
 11 15  1  0  0  0  0
 11 16  2  0  0  0  0
 12 13  1  0  0  0  0
 12 15  1  0  0  0  0
 12 17  2  0  0  0  0
 13 18  2  0  0  0  0
 13 19  1  0  0  0  0
  1 21  1  0  0  0  0
  2 22  1  0  0  0  0
  3 23  1  0  0  0  0
  4 24  1  0  0  0  0
  5 25  1  0  0  0  0
  6 26  1  0  0  0  0
  7 27  1  0  0  0  0
 14 28  1  0  0  0  0
 14 29  1  0  0  0  0
 15 30  1  0  0  0  0
 15 31  1  0  0  0  0
 19 32  1  0  0  0  0
M  END
> <Hybrid2>
-6.245418071746826

> <Hybrid2>
-6.245418

$$$$
CHEMBL143614
  -OEChem-02152218473D

 32 33  0     0  0  0  0  0  0999 V2000
    4.4324  -29.9526   -9.0475 C   0  0  0  0  0  0  0  0  0  0  0  0
    3.9918  -28.7066   -8.6014 C   0  0  0  0  0  0  0  0  0  0  0  0
    5.7925  -30.1756   -9.2623 C   0  0  0  0  0  0  0  0  0  0  0  0
    4.9114  -27.6835   -8.3703 C   0  0  0  0  0  0  0  0  0  0  0  0
    6.7120  -29.1525   -9.0311 C   0  0  0  0  0  0  0  0  0  0  0  0
    9.4429  -26.8350   -9.7185 C   0  0  0  0  0  0  0  0  0  0  0  0
    8.9786  -25.6068  -11.6363 C   0  0  0  0  0  0  0  0  0  0  0  0
    9.9324  -26.3345  -10.9594 C   0  0  0  0  0  0  0  0  0  0  0  0
    6.2715  -27.9065   -8.5851 C   0  0  0  0  0  0  0  0  0  0  0  0
    8.1334  -26.4706   -9.4941 C   0  0  0  0  0  0  0  0  0  0  0  0
   11.3071  -26.5505  -11.4970 C   0  0  0  0  0  0  0  0  0  0  0  0
   13.6604  -27.5413  -11.2801 C   0  0  0  0  0  0  0  0  0  0  0  0
   14.6589  -28.3191  -10.4707 C   0  0  0  0  0  0  0  0  0  0  0  0
    7.2744  -26.7916   -8.3335 C   0  0  0  0  0  0  0  0  0  0  0  0
   12.2879  -27.3672  -10.6762 C   0  0  0  0  0  0  0  0  0  0  0  0
   11.6115  -26.0475  -12.5757 O   0  0  0  0  0  0  0  0  0  0  0  0
   14.0289  -27.1303  -12.3700 O   0  0  0  0  0  0  0  0  0  0  0  0
   14.4057  -28.7304   -9.3566 O   0  0  0  0  0  0  0  0  0  0  0  0
   15.8155  -28.4128  -11.1391 O   0  0  0  0  0  0  0  0  0  0  0  0
    7.4998  -25.5291  -10.7764 S   0  0  0  0  0  0  0  0  0  0  0  0
    3.7164  -30.7495   -9.2261 H   0  0  0  0  0  0  0  0  0  0  0  0
    2.9330  -28.5331   -8.4331 H   0  0  0  0  0  0  0  0  0  0  0  0
    6.1359  -31.1459   -9.6085 H   0  0  0  0  0  0  0  0  0  0  0  0
    4.5590  -26.7158   -8.0230 H   0  0  0  0  0  0  0  0  0  0  0  0
    7.7697  -29.3353   -9.2013 H   0  0  0  0  0  0  0  0  0  0  0  0
   10.0215  -27.4324   -9.0244 H   0  0  0  0  0  0  0  0  0  0  0  0
    9.0728  -25.1137  -12.5943 H   0  0  0  0  0  0  0  0  0  0  0  0
    6.7191  -25.8964   -7.9881 H   0  0  0  0  0  0  0  0  0  0  0  0
    7.8844  -27.0657   -7.4494 H   0  0  0  0  0  0  0  0  0  0  0  0
   11.8788  -28.3725  -10.5294 H   0  0  0  0  0  0  0  0  0  0  0  0
   12.4101  -26.8624   -9.7114 H   0  0  0  0  0  0  0  0  0  0  0  0
   16.5075  -28.8779  -10.6223 H   0  0  0  0  0  0  0  0  0  0  0  0
  1  2  1  0  0  0  0
  1  3  2  0  0  0  0
  2  4  2  0  0  0  0
  3  5  1  0  0  0  0
  4  9  1  0  0  0  0
  5  9  2  0  0  0  0
  6  8  1  0  0  0  0
  6 10  2  0  0  0  0
  7  8  2  0  0  0  0
  7 20  1  0  0  0  0
  8 11  1  0  0  0  0
  9 14  1  0  0  0  0
 10 14  1  0  0  0  0
 10 20  1  0  0  0  0
 11 15  1  0  0  0  0
 11 16  2  0  0  0  0
 12 13  1  0  0  0  0
 12 15  1  0  0  0  0
 12 17  2  0  0  0  0
 13 18  2  0  0  0  0
 13 19  1  0  0  0  0
  1 21  1  0  0  0  0
  2 22  1  0  0  0  0
  3 23  1  0  0  0  0
  4 24  1  0  0  0  0
  5 25  1  0  0  0  0
  6 26  1  0  0  0  0
  7 27  1  0  0  0  0
 14 28  1  0  0  0  0
 14 29  1  0  0  0  0
 15 30  1  0  0  0  0
 15 31  1  0  0  0  0
 19 32  1  0  0  0  0
M  END
> <Hybrid2>
-6.245418071746826

> <Hybrid2>
-6.023176

$$$$
CHEMBL18635
  -OEChem-02152218473D

 55 58  0     0  0  0  0  0  0999 V2000
   10.7109  -26.9572   -9.1624 C   0  0  0  0  0  0  0  0  0  0  0  0
    7.9874  -23.8941   -9.6859 C   0  0  0  0  0  0  0  0  0  0  0  0
   10.3028  -27.9468  -12.7168 C   0  0  0  0  0  0  0  0  0  0  0  0
    7.7394  -24.9676  -13.2307 C   0  0  0  0  0  0  0  0  0  0  0  0
    9.7155  -27.7201   -8.5513 C   0  0  0  0  0  0  0  0  0  0  0  0
    7.0135  -24.6958   -9.0898 C   0  0  0  0  0  0  0  0  0  0  0  0
   11.2983  -27.1838  -13.3279 C   0  0  0  0  0  0  0  0  0  0  0  0
    8.7133  -24.1659  -13.8267 C   0  0  0  0  0  0  0  0  0  0  0  0
    9.1013  -28.6396  -10.6972 C   0  0  0  0  0  0  0  0  0  0  0  0
    6.5129  -25.6843  -11.2345 C   0  0  0  0  0  0  0  0  0  0  0  0
   10.0984  -27.8789  -11.3290 C   0  0  0  0  0  0  0  0  0  0  0  0
    7.4893  -24.8851  -11.8512 C   0  0  0  0  0  0  0  0  0  0  0  0
   10.9153  -27.0250  -10.5502 C   0  0  0  0  0  0  0  0  0  0  0  0
    8.2375  -23.9766  -11.0653 C   0  0  0  0  0  0  0  0  0  0  0  0
    8.9122  -28.5597   -9.3172 C   0  0  0  0  0  0  0  0  0  0  0  0
    6.2777  -25.5892   -9.8626 C   0  0  0  0  0  0  0  0  0  0  0  0
   12.1015  -26.3441  -12.5620 C   0  0  0  0  0  0  0  0  0  0  0  0
    9.4491  -23.2725  -13.0539 C   0  0  0  0  0  0  0  0  0  0  0  0
   11.9124  -26.2642  -11.1820 C   0  0  0  0  0  0  0  0  0  0  0  0
    9.2138  -23.1773  -11.6820 C   0  0  0  0  0  0  0  0  0  0  0  0
    7.8745  -29.3538   -8.6785 C   0  0  0  0  0  0  0  0  0  0  0  0
    5.2405  -26.4415   -9.2263 C   0  0  0  0  0  0  0  0  0  0  0  0
    4.5458  -29.5817   -8.3834 C   0  0  0  0  0  0  0  0  0  0  0  0
    5.6464  -30.4661   -8.9658 C   0  0  0  0  0  0  0  0  0  0  0  0
    3.9766  -28.5713   -9.3770 C   0  0  0  0  0  0  0  0  0  0  0  0
    6.7681  -29.7017   -9.4620 N   0  0  0  0  0  0  0  0  0  0  0  0
    4.9698  -27.6501   -9.8574 N   0  0  0  0  0  0  0  0  0  0  0  0
    7.9758  -29.6805   -7.4827 O   0  0  0  0  0  0  0  0  0  0  0  0
    4.6728  -26.0405   -8.2137 O   0  0  0  0  0  0  0  0  0  0  0  0
   13.0692  -25.6056  -13.1745 O   0  0  0  0  0  0  0  0  0  0  0  0
   10.3966  -22.4966  -13.6516 O   0  0  0  0  0  0  0  0  0  0  0  0
   12.7190  -25.4291  -10.4601 O   0  0  0  0  0  0  0  0  0  0  0  0
    9.9545  -22.2890  -10.9529 O   0  0  0  0  0  0  0  0  0  0  0  0
   11.3208  -26.3117   -8.5341 H   0  0  0  0  0  0  0  0  0  0  0  0
    8.5442  -23.2070   -9.0525 H   0  0  0  0  0  0  0  0  0  0  0  0
    9.6860  -28.5956  -13.3353 H   0  0  0  0  0  0  0  0  0  0  0  0
    7.1756  -25.6582  -13.8544 H   0  0  0  0  0  0  0  0  0  0  0  0
    9.5769  -27.6508   -7.4753 H   0  0  0  0  0  0  0  0  0  0  0  0
    6.8385  -24.6141   -8.0200 H   0  0  0  0  0  0  0  0  0  0  0  0
   11.4403  -27.2499  -14.4032 H   0  0  0  0  0  0  0  0  0  0  0  0
    8.8915  -24.2441  -14.8958 H   0  0  0  0  0  0  0  0  0  0  0  0
    8.4665  -29.2998  -11.2864 H   0  0  0  0  0  0  0  0  0  0  0  0
    5.9307  -26.3867  -11.8293 H   0  0  0  0  0  0  0  0  0  0  0  0
    4.9496  -29.0476   -7.5145 H   0  0  0  0  0  0  0  0  0  0  0  0
    3.7267  -30.2144   -8.0203 H   0  0  0  0  0  0  0  0  0  0  0  0
    6.0264  -31.1745   -8.2234 H   0  0  0  0  0  0  0  0  0  0  0  0
    5.2544  -31.0403   -9.8113 H   0  0  0  0  0  0  0  0  0  0  0  0
    3.1964  -27.9738   -8.8949 H   0  0  0  0  0  0  0  0  0  0  0  0
    3.5336  -29.0685  -10.2453 H   0  0  0  0  0  0  0  0  0  0  0  0
    6.7059  -29.3559  -10.4140 H   0  0  0  0  0  0  0  0  0  0  0  0
    5.4411  -27.8810  -10.7302 H   0  0  0  0  0  0  0  0  0  0  0  0
   13.0672  -25.7771  -14.1291 H   0  0  0  0  0  0  0  0  0  0  0  0
   10.4327  -22.6853  -14.6024 H   0  0  0  0  0  0  0  0  0  0  0  0
   12.4815  -25.4699   -9.5221 H   0  0  0  0  0  0  0  0  0  0  0  0
    9.6907  -22.3250  -10.0218 H   0  0  0  0  0  0  0  0  0  0  0  0
  1  5  2  0  0  0  0
  1 13  1  0  0  0  0
  2  6  2  0  0  0  0
  2 14  1  0  0  0  0
  3  7  2  0  0  0  0
  3 11  1  0  0  0  0
  4  8  2  0  0  0  0
  4 12  1  0  0  0  0
  5 15  1  0  0  0  0
  6 16  1  0  0  0  0
  7 17  1  0  0  0  0
  8 18  1  0  0  0  0
  9 11  1  0  0  0  0
  9 15  2  0  0  0  0
 10 12  1  0  0  0  0
 10 16  2  0  0  0  0
 11 13  2  0  0  0  0
 12 14  2  0  0  0  0
 13 19  1  0  0  0  0
 14 20  1  0  0  0  0
 15 21  1  0  0  0  0
 16 22  1  0  0  0  0
 17 19  2  0  0  0  0
 17 30  1  0  0  0  0
 18 20  2  0  0  0  0
 18 31  1  0  0  0  0
 19 32  1  0  0  0  0
 20 33  1  0  0  0  0
 21 26  1  0  0  0  0
 21 28  2  0  0  0  0
 22 27  1  0  0  0  0
 22 29  2  0  0  0  0
 23 24  1  0  0  0  0
 23 25  1  0  0  0  0
 24 26  1  0  0  0  0
 25 27  1  0  0  0  0
  1 34  1  0  0  0  0
  2 35  1  0  0  0  0
  3 36  1  0  0  0  0
  4 37  1  0  0  0  0
  5 38  1  0  0  0  0
  6 39  1  0  0  0  0
  7 40  1  0  0  0  0
  8 41  1  0  0  0  0
  9 42  1  0  0  0  0
 10 43  1  0  0  0  0
 23 44  1  0  0  0  0
 23 45  1  0  0  0  0
 24 46  1  0  0  0  0
 24 47  1  0  0  0  0
 25 48  1  0  0  0  0
 25 49  1  0  0  0  0
 26 50  1  0  0  0  0
 27 51  1  0  0  0  0
 30 52  1  0  0  0  0
 31 53  1  0  0  0  0
 32 54  1  0  0  0  0
 33 55  1  0  0  0  0
M  END
> <Hybrid2>
-1.1677302122116089

> <Hybrid2>
-1.167730

$$$$
CHEMBL18635
  -OEChem-02152218473D

 55 58  0     0  0  0  0  0  0999 V2000
    7.6694  -25.6478  -11.9379 C   0  0  0  0  0  0  0  0  0  0  0  0
    9.2525  -26.7499   -7.5511 C   0  0  0  0  0  0  0  0  0  0  0  0
    7.6025  -23.0740   -9.2637 C   0  0  0  0  0  0  0  0  0  0  0  0
    7.8347  -29.2993   -9.8468 C   0  0  0  0  0  0  0  0  0  0  0  0
    8.9906  -25.5514  -12.3757 C   0  0  0  0  0  0  0  0  0  0  0  0
   10.5568  -26.6432   -8.0348 C   0  0  0  0  0  0  0  0  0  0  0  0
    6.2813  -23.1705   -8.8260 C   0  0  0  0  0  0  0  0  0  0  0  0
    6.5304  -29.4060   -9.3631 C   0  0  0  0  0  0  0  0  0  0  0  0
    9.4023  -23.8115  -10.7537 C   0  0  0  0  0  0  0  0  0  0  0  0
   10.0669  -28.2969   -9.7238 C   0  0  0  0  0  0  0  0  0  0  0  0
    8.0757  -23.8950  -10.3003 C   0  0  0  0  0  0  0  0  0  0  0  0
    8.7502  -28.4172   -9.2502 C   0  0  0  0  0  0  0  0  0  0  0  0
    7.1963  -24.8268  -10.9014 C   0  0  0  0  0  0  0  0  0  0  0  0
    8.3370  -27.6321   -8.1476 C   0  0  0  0  0  0  0  0  0  0  0  0
    9.8554  -24.6350  -11.7847 C   0  0  0  0  0  0  0  0  0  0  0  0
   10.9632  -27.4152   -9.1190 C   0  0  0  0  0  0  0  0  0  0  0  0
    5.4165  -24.0869   -9.4171 C   0  0  0  0  0  0  0  0  0  0  0  0
    6.1240  -28.6340   -8.2787 C   0  0  0  0  0  0  0  0  0  0  0  0
    5.8696  -24.9103  -10.4481 C   0  0  0  0  0  0  0  0  0  0  0  0
    7.0203  -27.7524   -7.6739 C   0  0  0  0  0  0  0  0  0  0  0  0
   11.2321  -24.5353  -12.2428 C   0  0  0  0  0  0  0  0  0  0  0  0
   12.3527  -27.3009   -9.6322 C   0  0  0  0  0  0  0  0  0  0  0  0
   14.1415  -26.1947  -12.2072 C   0  0  0  0  0  0  0  0  0  0  0  0
   13.1596  -25.7497  -13.2890 C   0  0  0  0  0  0  0  0  0  0  0  0
   13.8239  -27.5651  -11.6125 C   0  0  0  0  0  0  0  0  0  0  0  0
   11.7979  -25.6834  -12.8093 N   0  0  0  0  0  0  0  0  0  0  0  0
   12.5358  -27.6054  -10.9761 N   0  0  0  0  0  0  0  0  0  0  0  0
   11.8668  -23.4741  -12.1086 O   0  0  0  0  0  0  0  0  0  0  0  0
   13.2515  -26.9723   -8.8623 O   0  0  0  0  0  0  0  0  0  0  0  0
    4.1292  -24.1683   -8.9778 O   0  0  0  0  0  0  0  0  0  0  0  0
    4.8466  -28.7503   -7.8186 O   0  0  0  0  0  0  0  0  0  0  0  0
    4.9934  -25.7990  -11.0065 O   0  0  0  0  0  0  0  0  0  0  0  0
    6.5880  -27.0095   -6.6107 O   0  0  0  0  0  0  0  0  0  0  0  0
    7.0206  -26.3747  -12.4215 H   0  0  0  0  0  0  0  0  0  0  0  0
    8.9680  -26.1318   -6.7024 H   0  0  0  0  0  0  0  0  0  0  0  0
    8.2607  -22.3499   -8.7879 H   0  0  0  0  0  0  0  0  0  0  0  0
    8.1309  -29.9132  -10.6949 H   0  0  0  0  0  0  0  0  0  0  0  0
    9.3335  -26.1980  -13.1794 H   0  0  0  0  0  0  0  0  0  0  0  0
   11.2470  -25.9529   -7.5565 H   0  0  0  0  0  0  0  0  0  0  0  0
    5.9342  -22.5259   -8.0229 H   0  0  0  0  0  0  0  0  0  0  0  0
    5.8371  -30.0949   -9.8380 H   0  0  0  0  0  0  0  0  0  0  0  0
   10.0878  -23.0979  -10.2990 H   0  0  0  0  0  0  0  0  0  0  0  0
   10.3962  -28.8962  -10.5714 H   0  0  0  0  0  0  0  0  0  0  0  0
   14.1440  -25.4443  -11.4072 H   0  0  0  0  0  0  0  0  0  0  0  0
   15.1547  -26.2219  -12.6265 H   0  0  0  0  0  0  0  0  0  0  0  0
   13.4220  -24.7652  -13.6882 H   0  0  0  0  0  0  0  0  0  0  0  0
   13.1698  -26.4643  -14.1181 H   0  0  0  0  0  0  0  0  0  0  0  0
   14.5641  -27.8196  -10.8474 H   0  0  0  0  0  0  0  0  0  0  0  0
   13.8443  -28.3483  -12.3765 H   0  0  0  0  0  0  0  0  0  0  0  0
   11.2565  -26.5413  -12.8373 H   0  0  0  0  0  0  0  0  0  0  0  0
   11.7473  -27.9309  -11.5323 H   0  0  0  0  0  0  0  0  0  0  0  0
    3.9789  -23.5314   -8.2618 H   0  0  0  0  0  0  0  0  0  0  0  0
    4.3587  -29.4015   -8.3464 H   0  0  0  0  0  0  0  0  0  0  0  0
    5.4351  -26.3035  -11.7052 H   0  0  0  0  0  0  0  0  0  0  0  0
    7.3056  -26.4443   -6.2892 H   0  0  0  0  0  0  0  0  0  0  0  0
  1  5  2  0  0  0  0
  1 13  1  0  0  0  0
  2  6  2  0  0  0  0
  2 14  1  0  0  0  0
  3  7  2  0  0  0  0
  3 11  1  0  0  0  0
  4  8  2  0  0  0  0
  4 12  1  0  0  0  0
  5 15  1  0  0  0  0
  6 16  1  0  0  0  0
  7 17  1  0  0  0  0
  8 18  1  0  0  0  0
  9 11  1  0  0  0  0
  9 15  2  0  0  0  0
 10 12  1  0  0  0  0
 10 16  2  0  0  0  0
 11 13  2  0  0  0  0
 12 14  2  0  0  0  0
 13 19  1  0  0  0  0
 14 20  1  0  0  0  0
 15 21  1  0  0  0  0
 16 22  1  0  0  0  0
 17 19  2  0  0  0  0
 17 30  1  0  0  0  0
 18 20  2  0  0  0  0
 18 31  1  0  0  0  0
 19 32  1  0  0  0  0
 20 33  1  0  0  0  0
 21 26  1  0  0  0  0
 21 28  2  0  0  0  0
 22 27  1  0  0  0  0
 22 29  2  0  0  0  0
 23 24  1  0  0  0  0
 23 25  1  0  0  0  0
 24 26  1  0  0  0  0
 25 27  1  0  0  0  0
  1 34  1  0  0  0  0
  2 35  1  0  0  0  0
  3 36  1  0  0  0  0
  4 37  1  0  0  0  0
  5 38  1  0  0  0  0
  6 39  1  0  0  0  0
  7 40  1  0  0  0  0
  8 41  1  0  0  0  0
  9 42  1  0  0  0  0
 10 43  1  0  0  0  0
 23 44  1  0  0  0  0
 23 45  1  0  0  0  0
 24 46  1  0  0  0  0
 24 47  1  0  0  0  0
 25 48  1  0  0  0  0
 25 49  1  0  0  0  0
 26 50  1  0  0  0  0
 27 51  1  0  0  0  0
 30 52  1  0  0  0  0
 31 53  1  0  0  0  0
 32 54  1  0  0  0  0
 33 55  1  0  0  0  0
M  END
> <Hybrid2>
-1.1677302122116089

> <Hybrid2>
0.342388

$$$$
CHEMBL213852
  -OEChem-02152218473D

 41 44  0     0  0  0  0  0  0999 V2000
   13.7329  -26.0377  -12.5100 C   0  0  0  0  0  0  0  0  0  0  0  0
   12.3727  -26.0171  -12.7836 C   0  0  0  0  0  0  0  0  0  0  0  0
    4.1819  -28.0379   -9.0123 C   0  0  0  0  0  0  0  0  0  0  0  0
    6.4369  -28.8095   -8.6165 C   0  0  0  0  0  0  0  0  0  0  0  0
    3.7137  -29.3466   -8.8960 C   0  0  0  0  0  0  0  0  0  0  0  0
    5.9686  -30.1183   -8.5001 C   0  0  0  0  0  0  0  0  0  0  0  0
   14.1189  -26.1519  -11.1897 C   0  0  0  0  0  0  0  0  0  0  0  0
   11.4413  -26.1101  -11.7421 C   0  0  0  0  0  0  0  0  0  0  0  0
    9.1779  -26.1849  -10.9419 C   0  0  0  0  0  0  0  0  0  0  0  0
    9.6769  -26.2964   -9.6475 C   0  0  0  0  0  0  0  0  0  0  0  0
    5.5436  -27.7693   -8.8726 C   0  0  0  0  0  0  0  0  0  0  0  0
   11.9385  -26.2246  -10.4142 C   0  0  0  0  0  0  0  0  0  0  0  0
   10.0563  -26.0904  -12.0040 C   0  0  0  0  0  0  0  0  0  0  0  0
   11.0309  -26.3182   -9.3636 C   0  0  0  0  0  0  0  0  0  0  0  0
    4.6070  -30.3868   -8.6399 C   0  0  0  0  0  0  0  0  0  0  0  0
    7.7196  -26.1956  -10.8566 C   0  0  0  0  0  0  0  0  0  0  0  0
    8.5428  -26.3800   -8.7147 C   0  0  0  0  0  0  0  0  0  0  0  0
    6.8394  -26.1097  -11.8610 C   0  0  0  0  0  0  0  0  0  0  0  0
    9.3719  -24.6617  -13.7777 C   0  0  0  0  0  0  0  0  0  0  0  0
    6.0482  -26.3607   -8.9970 C   0  0  0  0  0  0  0  0  0  0  0  0
   13.2574  -26.2445  -10.1510 N   0  0  0  0  0  0  0  0  0  0  0  0
    7.4013  -26.3132   -9.5108 N   0  0  0  0  0  0  0  0  0  0  0  0
    8.6450  -26.4852   -7.5065 O   0  0  0  0  0  0  0  0  0  0  0  0
   11.4679  -26.4289   -8.0792 O   0  0  0  0  0  0  0  0  0  0  0  0
    9.5947  -25.9800  -13.2803 O   0  0  0  0  0  0  0  0  0  0  0  0
    4.1571  -31.6433   -8.5254 F   0  0  0  0  0  0  0  0  0  0  0  0
   14.4653  -25.9670  -13.3056 H   0  0  0  0  0  0  0  0  0  0  0  0
   12.0574  -25.9281  -13.8205 H   0  0  0  0  0  0  0  0  0  0  0  0
    3.4784  -27.2341   -9.2128 H   0  0  0  0  0  0  0  0  0  0  0  0
    7.4995  -28.6097   -8.5058 H   0  0  0  0  0  0  0  0  0  0  0  0
    2.6536  -29.5557   -9.0041 H   0  0  0  0  0  0  0  0  0  0  0  0
    6.6639  -30.9284   -8.3011 H   0  0  0  0  0  0  0  0  0  0  0  0
   15.1693  -26.1725  -10.9182 H   0  0  0  0  0  0  0  0  0  0  0  0
    5.7756  -26.1293  -11.6637 H   0  0  0  0  0  0  0  0  0  0  0  0
    7.1791  -26.0195  -12.8844 H   0  0  0  0  0  0  0  0  0  0  0  0
    9.0051  -24.7165  -14.8056 H   0  0  0  0  0  0  0  0  0  0  0  0
   10.3059  -24.0953  -13.7426 H   0  0  0  0  0  0  0  0  0  0  0  0
    8.6246  -24.1675  -13.1524 H   0  0  0  0  0  0  0  0  0  0  0  0
    5.4103  -25.7803   -9.6724 H   0  0  0  0  0  0  0  0  0  0  0  0
    6.0407  -25.8535   -8.0265 H   0  0  0  0  0  0  0  0  0  0  0  0
   10.7136  -26.4833   -7.4710 H   0  0  0  0  0  0  0  0  0  0  0  0
  1  2  2  0  0  0  0
  1  7  1  0  0  0  0
  2  8  1  0  0  0  0
  3  5  2  0  0  0  0
  3 11  1  0  0  0  0
  4  6  1  0  0  0  0
  4 11  2  0  0  0  0
  5 15  1  0  0  0  0
  6 15  2  0  0  0  0
  7 21  2  0  0  0  0
  8 12  2  0  0  0  0
  8 13  1  0  0  0  0
  9 10  1  0  0  0  0
  9 13  2  0  0  0  0
  9 16  1  0  0  0  0
 10 14  2  0  0  0  0
 10 17  1  0  0  0  0
 11 20  1  0  0  0  0
 12 14  1  0  0  0  0
 12 21  1  0  0  0  0
 13 25  1  0  0  0  0
 14 24  1  0  0  0  0
 15 26  1  0  0  0  0
 16 18  2  0  0  0  0
 16 22  1  0  0  0  0
 17 22  1  0  0  0  0
 17 23  2  0  0  0  0
 19 25  1  0  0  0  0
 20 22  1  0  0  0  0
  1 27  1  0  0  0  0
  2 28  1  0  0  0  0
  3 29  1  0  0  0  0
  4 30  1  0  0  0  0
  5 31  1  0  0  0  0
  6 32  1  0  0  0  0
  7 33  1  0  0  0  0
 18 34  1  0  0  0  0
 18 35  1  0  0  0  0
 19 36  1  0  0  0  0
 19 37  1  0  0  0  0
 19 38  1  0  0  0  0
 20 39  1  0  0  0  0
 20 40  1  0  0  0  0
 24 41  1  0  0  0  0
M  END
> <Hybrid2>
-4.7094502449035645

> <Hybrid2>
-4.709450

$$$$
CHEMBL213852
  -OEChem-02152218473D

 41 44  0     0  0  0  0  0  0999 V2000
   15.4483  -27.5870  -12.4083 C   0  0  0  0  0  0  0  0  0  0  0  0
   14.6021  -27.6656  -11.3114 C   0  0  0  0  0  0  0  0  0  0  0  0
    6.0688  -27.2416   -8.1187 C   0  0  0  0  0  0  0  0  0  0  0  0
    7.2942  -28.5306   -9.7538 C   0  0  0  0  0  0  0  0  0  0  0  0
    5.4976  -28.4135   -7.6228 C   0  0  0  0  0  0  0  0  0  0  0  0
    6.7231  -29.7026   -9.2579 C   0  0  0  0  0  0  0  0  0  0  0  0
   14.9307  -27.0749  -13.5810 C   0  0  0  0  0  0  0  0  0  0  0  0
   13.2733  -27.2352  -11.4121 C   0  0  0  0  0  0  0  0  0  0  0  0
   11.0998  -26.8716  -10.4571 C   0  0  0  0  0  0  0  0  0  0  0  0
   10.6821  -26.3723  -11.6873 C   0  0  0  0  0  0  0  0  0  0  0  0
    6.9670  -27.3001   -9.1843 C   0  0  0  0  0  0  0  0  0  0  0  0
   12.8339  -26.7226  -12.6643 C   0  0  0  0  0  0  0  0  0  0  0  0
   12.4016  -27.3088  -10.3068 C   0  0  0  0  0  0  0  0  0  0  0  0
   11.5174  -26.2893  -12.7872 C   0  0  0  0  0  0  0  0  0  0  0  0
    5.8248  -29.6440   -8.1924 C   0  0  0  0  0  0  0  0  0  0  0  0
    9.9616  -26.8069   -9.5436 C   0  0  0  0  0  0  0  0  0  0  0  0
    9.2686  -25.9808  -11.5776 C   0  0  0  0  0  0  0  0  0  0  0  0
    9.9185  -27.1842   -8.2604 C   0  0  0  0  0  0  0  0  0  0  0  0
   12.6914  -29.2052   -8.9013 C   0  0  0  0  0  0  0  0  0  0  0  0
    7.5828  -26.0391   -9.7181 C   0  0  0  0  0  0  0  0  0  0  0  0
   13.6558  -26.6471  -13.7263 N   0  0  0  0  0  0  0  0  0  0  0  0
    8.9039  -26.2702  -10.2642 N   0  0  0  0  0  0  0  0  0  0  0  0
    8.6080  -25.5068  -12.4832 O   0  0  0  0  0  0  0  0  0  0  0  0
   11.0596  -25.7928  -13.9690 O   0  0  0  0  0  0  0  0  0  0  0  0
   12.8361  -27.8021   -9.1142 O   0  0  0  0  0  0  0  0  0  0  0  0
    5.2784  -30.7698   -7.7144 F   0  0  0  0  0  0  0  0  0  0  0  0
   16.4790  -27.9158  -12.3453 H   0  0  0  0  0  0  0  0  0  0  0  0
   14.9997  -28.0668  -10.3822 H   0  0  0  0  0  0  0  0  0  0  0  0
    5.8071  -26.2874   -7.6689 H   0  0  0  0  0  0  0  0  0  0  0  0
    7.9933  -28.5860  -10.5842 H   0  0  0  0  0  0  0  0  0  0  0  0
    4.7989  -28.3681   -6.7929 H   0  0  0  0  0  0  0  0  0  0  0  0
    6.9772  -30.6608   -9.7013 H   0  0  0  0  0  0  0  0  0  0  0  0
   15.5473  -26.9910  -14.4700 H   0  0  0  0  0  0  0  0  0  0  0  0
    9.0059  -27.0837   -7.6877 H   0  0  0  0  0  0  0  0  0  0  0  0
   10.7954  -27.5949   -7.7776 H   0  0  0  0  0  0  0  0  0  0  0  0
   13.0767  -29.4661   -7.9125 H   0  0  0  0  0  0  0  0  0  0  0  0
   13.2401  -29.7503   -9.6734 H   0  0  0  0  0  0  0  0  0  0  0  0
   11.6318  -29.4658   -8.9573 H   0  0  0  0  0  0  0  0  0  0  0  0
    6.9600  -25.6111  -10.5112 H   0  0  0  0  0  0  0  0  0  0  0  0
    7.6733  -25.2825   -8.9316 H   0  0  0  0  0  0  0  0  0  0  0  0
   10.1270  -25.5372  -13.8876 H   0  0  0  0  0  0  0  0  0  0  0  0
  1  2  2  0  0  0  0
  1  7  1  0  0  0  0
  2  8  1  0  0  0  0
  3  5  2  0  0  0  0
  3 11  1  0  0  0  0
  4  6  1  0  0  0  0
  4 11  2  0  0  0  0
  5 15  1  0  0  0  0
  6 15  2  0  0  0  0
  7 21  2  0  0  0  0
  8 12  2  0  0  0  0
  8 13  1  0  0  0  0
  9 10  1  0  0  0  0
  9 13  2  0  0  0  0
  9 16  1  0  0  0  0
 10 14  2  0  0  0  0
 10 17  1  0  0  0  0
 11 20  1  0  0  0  0
 12 14  1  0  0  0  0
 12 21  1  0  0  0  0
 13 25  1  0  0  0  0
 14 24  1  0  0  0  0
 15 26  1  0  0  0  0
 16 18  2  0  0  0  0
 16 22  1  0  0  0  0
 17 22  1  0  0  0  0
 17 23  2  0  0  0  0
 19 25  1  0  0  0  0
 20 22  1  0  0  0  0
  1 27  1  0  0  0  0
  2 28  1  0  0  0  0
  3 29  1  0  0  0  0
  4 30  1  0  0  0  0
  5 31  1  0  0  0  0
  6 32  1  0  0  0  0
  7 33  1  0  0  0  0
 18 34  1  0  0  0  0
 18 35  1  0  0  0  0
 19 36  1  0  0  0  0
 19 37  1  0  0  0  0
 19 38  1  0  0  0  0
 20 39  1  0  0  0  0
 20 40  1  0  0  0  0
 24 41  1  0  0  0  0
M  END
> <Hybrid2>
-4.7094502449035645

> <Hybrid2>
-4.498400

$$$$
CHEMBL232801
  -OEChem-02152218473D

 10 10  0     0  0  0  0  0  0999 V2000
    7.5522  -25.9706   -8.4669 C   0  0  0  0  0  0  0  0  0  0  0  0
    7.6235  -27.8242   -9.4240 C   0  0  0  0  0  0  0  0  0  0  0  0
    8.3141  -26.7123   -9.3236 N   0  0  0  0  0  0  0  0  0  0  0  0
    6.5032  -27.7378   -8.6577 N   0  0  0  0  0  0  0  0  0  0  0  0
    6.4337  -26.5536   -8.0308 N   0  0  0  0  0  0  0  0  0  0  0  0
    8.0325  -28.8571  -10.1955 N   0  0  0  0  0  0  0  0  0  0  0  0
    7.8361  -24.9724   -8.1601 H   0  0  0  0  0  0  0  0  0  0  0  0
    5.6692  -26.2975   -7.4121 H   0  0  0  0  0  0  0  0  0  0  0  0
    8.8801  -28.8017  -10.7770 H   0  0  0  0  0  0  0  0  0  0  0  0
    7.4669  -29.7095  -10.3104 H   0  0  0  0  0  0  0  0  0  0  0  0
  1  3  2  0  0  0  0
  1  5  1  0  0  0  0
  2  3  1  0  0  0  0
  2  4  2  0  0  0  0
  2  6  1  0  0  0  0
  4  5  1  0  0  0  0
  1  7  1  0  0  0  0
  5  8  1  0  0  0  0
  6  9  1  0  0  0  0
  6 10  1  0  0  0  0
M  END
> <Hybrid2>
-2.798708915710449

> <Hybrid2>
-2.798709

$$$$
CHEMBL232801
  -OEChem-02152218473D

 10 10  0     0  0  0  0  0  0999 V2000
    7.5522  -25.4036   -8.7169 C   0  0  0  0  0  0  0  0  0  0  0  0
    7.6235  -27.2572   -9.6740 C   0  0  0  0  0  0  0  0  0  0  0  0
    8.3141  -26.1453   -9.5736 N   0  0  0  0  0  0  0  0  0  0  0  0
    6.5032  -27.1709   -8.9077 N   0  0  0  0  0  0  0  0  0  0  0  0
    6.4337  -25.9866   -8.2808 N   0  0  0  0  0  0  0  0  0  0  0  0
    8.0325  -28.2901  -10.4455 N   0  0  0  0  0  0  0  0  0  0  0  0
    7.8361  -24.4055   -8.4101 H   0  0  0  0  0  0  0  0  0  0  0  0
    5.6692  -25.7305   -7.6621 H   0  0  0  0  0  0  0  0  0  0  0  0
    8.8801  -28.2347  -11.0270 H   0  0  0  0  0  0  0  0  0  0  0  0
    7.4669  -29.1425  -10.5604 H   0  0  0  0  0  0  0  0  0  0  0  0
  1  3  2  0  0  0  0
  1  5  1  0  0  0  0
  2  3  1  0  0  0  0
  2  4  2  0  0  0  0
  2  6  1  0  0  0  0
  4  5  1  0  0  0  0
  1  7  1  0  0  0  0
  5  8  1  0  0  0  0
  6  9  1  0  0  0  0
  6 10  1  0  0  0  0
M  END
> <Hybrid2>
-2.798708915710449

> <Hybrid2>
-2.569278

$$$$
CHEMBL211110
  -OEChem-02152218473D

 52 56  0     0  0  0  0  0  0999 V2000
    4.8444  -25.5475  -14.5667 C   0  0  0  0  0  0  0  0  0  0  0  0
    4.9932  -24.2538  -15.0541 C   0  0  0  0  0  0  0  0  0  0  0  0
   14.0319  -27.0579  -12.5075 C   0  0  0  0  0  0  0  0  0  0  0  0
   12.6978  -26.7767  -12.7658 C   0  0  0  0  0  0  0  0  0  0  0  0
    4.8874  -28.0008  -10.0168 C   0  0  0  0  0  0  0  0  0  0  0  0
    5.7390  -28.4436   -7.7996 C   0  0  0  0  0  0  0  0  0  0  0  0
    4.1984  -29.2133   -9.9943 C   0  0  0  0  0  0  0  0  0  0  0  0
    5.0500  -29.6561   -7.7771 C   0  0  0  0  0  0  0  0  0  0  0  0
    5.9274  -26.4194  -14.5828 C   0  0  0  0  0  0  0  0  0  0  0  0
   14.3855  -27.3431  -11.2040 C   0  0  0  0  0  0  0  0  0  0  0  0
    6.2358  -23.8838  -15.5429 C   0  0  0  0  0  0  0  0  0  0  0  0
   11.7601  -26.7875  -11.7260 C   0  0  0  0  0  0  0  0  0  0  0  0
    9.9806  -26.8284   -9.6351 C   0  0  0  0  0  0  0  0  0  0  0  0
   10.4024  -26.5042  -11.9716 C   0  0  0  0  0  0  0  0  0  0  0  0
    9.5205  -26.5285  -10.9116 C   0  0  0  0  0  0  0  0  0  0  0  0
    5.6578  -27.6159   -8.9194 C   0  0  0  0  0  0  0  0  0  0  0  0
   12.2228  -27.0935  -10.4155 C   0  0  0  0  0  0  0  0  0  0  0  0
   11.3076  -27.1101   -9.3667 C   0  0  0  0  0  0  0  0  0  0  0  0
    4.2796  -30.0410   -8.8745 C   0  0  0  0  0  0  0  0  0  0  0  0
    7.1281  -25.9525  -15.0929 C   0  0  0  0  0  0  0  0  0  0  0  0
    8.8418  -26.7842   -8.7108 C   0  0  0  0  0  0  0  0  0  0  0  0
    9.8892  -26.1859  -13.3003 C   0  0  0  0  0  0  0  0  0  0  0  0
    8.0534  -26.2705  -10.8936 C   0  0  0  0  0  0  0  0  0  0  0  0
    6.3991  -26.3105   -8.9427 C   0  0  0  0  0  0  0  0  0  0  0  0
    8.3186  -26.8668  -15.1259 C   0  0  0  0  0  0  0  0  0  0  0  0
   13.5164  -27.3656  -10.1676 N   0  0  0  0  0  0  0  0  0  0  0  0
    7.3109  -24.7028  -15.5749 N   0  0  0  0  0  0  0  0  0  0  0  0
    7.7334  -26.4550   -9.4833 N   0  0  0  0  0  0  0  0  0  0  0  0
    8.9074  -27.0356  -13.8169 N   0  0  0  0  0  0  0  0  0  0  0  0
    8.9138  -27.0015   -7.5152 O   0  0  0  0  0  0  0  0  0  0  0  0
   10.3365  -25.2130  -13.9278 O   0  0  0  0  0  0  0  0  0  0  0  0
   11.7123  -27.3985   -8.0995 O   0  0  0  0  0  0  0  0  0  0  0  0
    3.6158  -31.2042   -8.8517 F   0  0  0  0  0  0  0  0  0  0  0  0
    3.8862  -25.8754  -14.1751 H   0  0  0  0  0  0  0  0  0  0  0  0
    4.1628  -23.5571  -15.0513 H   0  0  0  0  0  0  0  0  0  0  0  0
   14.7695  -27.0534  -13.3015 H   0  0  0  0  0  0  0  0  0  0  0  0
   12.4131  -26.5512  -13.7905 H   0  0  0  0  0  0  0  0  0  0  0  0
    4.8186  -27.3629  -10.8941 H   0  0  0  0  0  0  0  0  0  0  0  0
    6.3366  -28.1518   -6.9399 H   0  0  0  0  0  0  0  0  0  0  0  0
    3.5981  -29.5127  -10.8482 H   0  0  0  0  0  0  0  0  0  0  0  0
    5.1133  -30.3010   -6.9057 H   0  0  0  0  0  0  0  0  0  0  0  0
    5.8244  -27.4311  -14.2056 H   0  0  0  0  0  0  0  0  0  0  0  0
   15.4146  -27.5701  -10.9450 H   0  0  0  0  0  0  0  0  0  0  0  0
    6.4039  -22.8859  -15.9342 H   0  0  0  0  0  0  0  0  0  0  0  0
    7.8101  -25.2447  -11.1845 H   0  0  0  0  0  0  0  0  0  0  0  0
    7.4972  -27.0028  -11.4855 H   0  0  0  0  0  0  0  0  0  0  0  0
    5.8655  -25.5743   -9.5537 H   0  0  0  0  0  0  0  0  0  0  0  0
    6.4898  -25.8921   -7.9347 H   0  0  0  0  0  0  0  0  0  0  0  0
    8.0346  -27.8571  -15.4983 H   0  0  0  0  0  0  0  0  0  0  0  0
    9.0941  -26.4781  -15.7943 H   0  0  0  0  0  0  0  0  0  0  0  0
    8.6246  -27.8525  -13.2855 H   0  0  0  0  0  0  0  0  0  0  0  0
   10.9574  -27.3684   -7.4904 H   0  0  0  0  0  0  0  0  0  0  0  0
  1  2  1  0  0  0  0
  1  9  2  0  0  0  0
  2 11  2  0  0  0  0
  3  4  2  0  0  0  0
  3 10  1  0  0  0  0
  4 12  1  0  0  0  0
  5  7  2  0  0  0  0
  5 16  1  0  0  0  0
  6  8  1  0  0  0  0
  6 16  2  0  0  0  0
  7 19  1  0  0  0  0
  8 19  2  0  0  0  0
  9 20  1  0  0  0  0
 10 26  2  0  0  0  0
 11 27  1  0  0  0  0
 12 14  2  0  0  0  0
 12 17  1  0  0  0  0
 13 15  2  0  0  0  0
 13 18  1  0  0  0  0
 13 21  1  0  0  0  0
 14 15  1  0  0  0  0
 14 22  1  0  0  0  0
 15 23  1  0  0  0  0
 16 24  1  0  0  0  0
 17 18  2  0  0  0  0
 17 26  1  0  0  0  0
 18 32  1  0  0  0  0
 19 33  1  0  0  0  0
 20 25  1  0  0  0  0
 20 27  2  0  0  0  0
 21 28  1  0  0  0  0
 21 30  2  0  0  0  0
 22 29  1  0  0  0  0
 22 31  2  0  0  0  0
 23 28  1  0  0  0  0
 24 28  1  0  0  0  0
 25 29  1  0  0  0  0
  1 34  1  0  0  0  0
  2 35  1  0  0  0  0
  3 36  1  0  0  0  0
  4 37  1  0  0  0  0
  5 38  1  0  0  0  0
  6 39  1  0  0  0  0
  7 40  1  0  0  0  0
  8 41  1  0  0  0  0
  9 42  1  0  0  0  0
 10 43  1  0  0  0  0
 11 44  1  0  0  0  0
 23 45  1  0  0  0  0
 23 46  1  0  0  0  0
 24 47  1  0  0  0  0
 24 48  1  0  0  0  0
 25 49  1  0  0  0  0
 25 50  1  0  0  0  0
 29 51  1  0  0  0  0
 32 52  1  0  0  0  0
M  END
> <Hybrid2>
-3.5479907989501953

> <Hybrid2>
-3.547991

$$$$
CHEMBL211110
  -OEChem-02152218473D

 52 56  0     0  0  0  0  0  0999 V2000
    7.4567  -30.4927   -9.5064 C   0  0  0  0  0  0  0  0  0  0  0  0
    8.0392  -30.7635   -8.2733 C   0  0  0  0  0  0  0  0  0  0  0  0
    6.1123  -21.1559   -8.1103 C   0  0  0  0  0  0  0  0  0  0  0  0
    6.3793  -22.5048   -8.2967 C   0  0  0  0  0  0  0  0  0  0  0  0
   12.8589  -26.2799  -12.6916 C   0  0  0  0  0  0  0  0  0  0  0  0
   11.8469  -28.0216  -11.3577 C   0  0  0  0  0  0  0  0  0  0  0  0
   14.1051  -26.5847  -12.1443 C   0  0  0  0  0  0  0  0  0  0  0  0
   13.0932  -28.3265  -10.8103 C   0  0  0  0  0  0  0  0  0  0  0  0
    6.6239  -29.3882   -9.6481 C   0  0  0  0  0  0  0  0  0  0  0  0
    6.7145  -20.2591   -8.9696 C   0  0  0  0  0  0  0  0  0  0  0  0
    7.7595  -29.9059   -7.2216 C   0  0  0  0  0  0  0  0  0  0  0  0
    7.2327  -22.9195   -9.3264 C   0  0  0  0  0  0  0  0  0  0  0  0
    8.9160  -23.6553  -11.3673 C   0  0  0  0  0  0  0  0  0  0  0  0
    7.5141  -24.2848   -9.5287 C   0  0  0  0  0  0  0  0  0  0  0  0
    8.3613  -24.6390  -10.5576 C   0  0  0  0  0  0  0  0  0  0  0  0
   11.7298  -26.9983  -12.2983 C   0  0  0  0  0  0  0  0  0  0  0  0
    7.8053  -21.9186  -10.1602 C   0  0  0  0  0  0  0  0  0  0  0  0
    8.6566  -22.3085  -11.1904 C   0  0  0  0  0  0  0  0  0  0  0  0
   14.2223  -27.6080  -11.2037 C   0  0  0  0  0  0  0  0  0  0  0  0
    6.4074  -28.5924   -8.5348 C   0  0  0  0  0  0  0  0  0  0  0  0
    9.7676  -24.3067  -12.3691 C   0  0  0  0  0  0  0  0  0  0  0  0
    6.9470  -25.3406   -8.6956 C   0  0  0  0  0  0  0  0  0  0  0  0
    8.8199  -25.9906  -10.9846 C   0  0  0  0  0  0  0  0  0  0  0  0
   10.3882  -26.6713  -12.8877 C   0  0  0  0  0  0  0  0  0  0  0  0
    5.5137  -27.3916   -8.6512 C   0  0  0  0  0  0  0  0  0  0  0  0
    7.5450  -20.6117   -9.9776 N   0  0  0  0  0  0  0  0  0  0  0  0
    6.9557  -28.8235   -7.3209 N   0  0  0  0  0  0  0  0  0  0  0  0
    9.6858  -25.6711  -12.1132 N   0  0  0  0  0  0  0  0  0  0  0  0
    6.1621  -26.2997   -9.3412 N   0  0  0  0  0  0  0  0  0  0  0  0
   10.3968  -23.7179  -13.2288 O   0  0  0  0  0  0  0  0  0  0  0  0
    7.1513  -25.3498   -7.4714 O   0  0  0  0  0  0  0  0  0  0  0  0
    9.2233  -21.3803  -12.0087 O   0  0  0  0  0  0  0  0  0  0  0  0
   15.4194  -27.9025  -10.6799 F   0  0  0  0  0  0  0  0  0  0  0  0
    7.6514  -31.1411  -10.3553 H   0  0  0  0  0  0  0  0  0  0  0  0
    8.6916  -31.6187   -8.1397 H   0  0  0  0  0  0  0  0  0  0  0  0
    5.4541  -20.8192   -7.3179 H   0  0  0  0  0  0  0  0  0  0  0  0
    5.9080  -23.2161   -7.6230 H   0  0  0  0  0  0  0  0  0  0  0  0
   12.7774  -25.4803  -13.4233 H   0  0  0  0  0  0  0  0  0  0  0  0
   10.9728  -28.5870  -11.0454 H   0  0  0  0  0  0  0  0  0  0  0  0
   14.9842  -26.0259  -12.4509 H   0  0  0  0  0  0  0  0  0  0  0  0
   13.1848  -29.1228  -10.0777 H   0  0  0  0  0  0  0  0  0  0  0  0
    6.1633  -29.1660  -10.6047 H   0  0  0  0  0  0  0  0  0  0  0  0
    6.5411  -19.1925   -8.8698 H   0  0  0  0  0  0  0  0  0  0  0  0
    8.1891  -30.0733   -6.2394 H   0  0  0  0  0  0  0  0  0  0  0  0
    9.4097  -26.4908  -10.2114 H   0  0  0  0  0  0  0  0  0  0  0  0
    7.9939  -26.6167  -11.3335 H   0  0  0  0  0  0  0  0  0  0  0  0
   10.4975  -26.2913  -13.9093 H   0  0  0  0  0  0  0  0  0  0  0  0
    9.7534  -27.5622  -12.9382 H   0  0  0  0  0  0  0  0  0  0  0  0
    4.5997  -27.6424   -9.2006 H   0  0  0  0  0  0  0  0  0  0  0  0
    5.2103  -27.0302   -7.6631 H   0  0  0  0  0  0  0  0  0  0  0  0
    5.9772  -26.2067  -10.3346 H   0  0  0  0  0  0  0  0  0  0  0  0
    9.7860  -21.8137  -12.6701 H   0  0  0  0  0  0  0  0  0  0  0  0
  1  2  1  0  0  0  0
  1  9  2  0  0  0  0
  2 11  2  0  0  0  0
  3  4  2  0  0  0  0
  3 10  1  0  0  0  0
  4 12  1  0  0  0  0
  5  7  2  0  0  0  0
  5 16  1  0  0  0  0
  6  8  1  0  0  0  0
  6 16  2  0  0  0  0
  7 19  1  0  0  0  0
  8 19  2  0  0  0  0
  9 20  1  0  0  0  0
 10 26  2  0  0  0  0
 11 27  1  0  0  0  0
 12 14  2  0  0  0  0
 12 17  1  0  0  0  0
 13 15  2  0  0  0  0
 13 18  1  0  0  0  0
 13 21  1  0  0  0  0
 14 15  1  0  0  0  0
 14 22  1  0  0  0  0
 15 23  1  0  0  0  0
 16 24  1  0  0  0  0
 17 18  2  0  0  0  0
 17 26  1  0  0  0  0
 18 32  1  0  0  0  0
 19 33  1  0  0  0  0
 20 25  1  0  0  0  0
 20 27  2  0  0  0  0
 21 28  1  0  0  0  0
 21 30  2  0  0  0  0
 22 29  1  0  0  0  0
 22 31  2  0  0  0  0
 23 28  1  0  0  0  0
 24 28  1  0  0  0  0
 25 29  1  0  0  0  0
  1 34  1  0  0  0  0
  2 35  1  0  0  0  0
  3 36  1  0  0  0  0
  4 37  1  0  0  0  0
  5 38  1  0  0  0  0
  6 39  1  0  0  0  0
  7 40  1  0  0  0  0
  8 41  1  0  0  0  0
  9 42  1  0  0  0  0
 10 43  1  0  0  0  0
 11 44  1  0  0  0  0
 23 45  1  0  0  0  0
 23 46  1  0  0  0  0
 24 47  1  0  0  0  0
 24 48  1  0  0  0  0
 25 49  1  0  0  0  0
 25 50  1  0  0  0  0
 29 51  1  0  0  0  0
 32 52  1  0  0  0  0
M  END
> <Hybrid2>
-3.5479907989501953

> <Hybrid2>
-3.218402

$$$$
CHEMBL86133
  -OEChem-02152218473D

 55 57  0     1  0  0  0  0  0999 V2000
    7.6005  -29.7733  -10.0697 C   0  0  0  0  0  0  0  0  0  0  0  0
    6.5360  -29.8828   -9.1752 C   0  0  0  0  0  0  0  0  0  0  0  0
    7.8631  -22.8112  -10.6880 C   0  0  0  0  0  0  0  0  0  0  0  0
   12.4892  -27.0708   -8.5541 C   0  0  0  0  0  0  0  0  0  0  0  0
    7.2352  -23.1508  -11.8863 C   0  0  0  0  0  0  0  0  0  0  0  0
   13.0899  -26.9631   -9.8084 C   0  0  0  0  0  0  0  0  0  0  0  0
    8.3418  -28.5932  -10.1306 C   0  0  0  0  0  0  0  0  0  0  0  0
    8.3863  -23.8104   -9.8672 C   0  0  0  0  0  0  0  0  0  0  0  0
   11.1226  -26.8303   -8.4123 C   0  0  0  0  0  0  0  0  0  0  0  0
    6.2126  -28.8122   -8.3415 C   0  0  0  0  0  0  0  0  0  0  0  0
    7.6536  -25.4887  -11.4430 C   0  0  0  0  0  0  0  0  0  0  0  0
   10.9573  -26.3742  -10.7791 C   0  0  0  0  0  0  0  0  0  0  0  0
    7.1304  -24.4895  -12.2639 C   0  0  0  0  0  0  0  0  0  0  0  0
   12.3239  -26.6148  -10.9209 C   0  0  0  0  0  0  0  0  0  0  0  0
    8.2815  -25.1491  -10.2447 C   0  0  0  0  0  0  0  0  0  0  0  0
   10.3566  -26.4820   -9.5248 C   0  0  0  0  0  0  0  0  0  0  0  0
    8.0184  -27.5226   -9.2970 C   0  0  0  0  0  0  0  0  0  0  0  0
    6.9538  -27.6321   -8.4024 C   0  0  0  0  0  0  0  0  0  0  0  0
    7.1166  -25.5091  -14.5060 C   0  0  0  0  0  0  0  0  0  0  0  0
   12.9433  -25.3461  -12.9392 C   0  0  0  0  0  0  0  0  0  0  0  0
    6.4749  -24.8438  -13.5133 C   0  0  0  0  0  0  0  0  0  0  0  0
   12.9505  -26.5017  -12.2289 C   0  0  0  0  0  0  0  0  0  0  0  0
    6.4913  -25.8844  -15.7970 C   0  0  0  0  0  0  0  0  0  0  0  0
   13.5622  -25.1869  -14.2772 C   0  0  0  0  0  0  0  0  0  0  0  0
    7.3678  -26.6171  -16.7646 C   0  0  0  0  0  0  0  0  0  0  0  0
   13.4472  -23.8296  -14.8983 C   0  0  0  0  0  0  0  0  0  0  0  0
    8.8422  -26.2169   -9.3674 C   0  0  2  0  0  0  0  0  0  0  0  0
    5.3505  -25.6309  -16.1449 O   0  0  0  0  0  0  0  0  0  0  0  0
   14.1268  -26.0576  -14.9175 O   0  0  0  0  0  0  0  0  0  0  0  0
    8.5236  -26.8890  -16.5124 O   0  0  0  0  0  0  0  0  0  0  0  0
   12.8802  -22.9105  -14.3440 O   0  0  0  0  0  0  0  0  0  0  0  0
    5.1538  -24.4288  -13.6115 O   0  0  0  0  0  0  0  0  0  0  0  0
   13.5339  -27.6723  -12.6942 O   0  0  0  0  0  0  0  0  0  0  0  0
    6.6843  -26.8648  -17.8899 O   0  0  0  0  0  0  0  0  0  0  0  0
   14.0221  -23.8401  -16.1084 O   0  0  0  0  0  0  0  0  0  0  0  0
    6.6356  -26.6089   -7.5973 F   0  0  0  0  0  0  0  0  0  0  0  0
    7.8522  -30.6068  -10.7194 H   0  0  0  0  0  0  0  0  0  0  0  0
    5.9585  -30.8014   -9.1282 H   0  0  0  0  0  0  0  0  0  0  0  0
    7.9449  -21.7687  -10.3945 H   0  0  0  0  0  0  0  0  0  0  0  0
   13.0858  -27.3425   -7.6881 H   0  0  0  0  0  0  0  0  0  0  0  0
    6.8321  -22.3606  -12.5153 H   0  0  0  0  0  0  0  0  0  0  0  0
   14.1563  -27.1534   -9.9028 H   0  0  0  0  0  0  0  0  0  0  0  0
    9.1691  -28.5168  -10.8312 H   0  0  0  0  0  0  0  0  0  0  0  0
    8.8744  -23.5369   -8.9354 H   0  0  0  0  0  0  0  0  0  0  0  0
   10.6626  -26.9170   -7.4315 H   0  0  0  0  0  0  0  0  0  0  0  0
    5.3839  -28.8973   -7.6446 H   0  0  0  0  0  0  0  0  0  0  0  0
    7.5748  -26.5349  -11.7316 H   0  0  0  0  0  0  0  0  0  0  0  0
   10.3542  -26.1017  -11.6429 H   0  0  0  0  0  0  0  0  0  0  0  0
    8.1585  -25.7944  -14.3872 H   0  0  0  0  0  0  0  0  0  0  0  0
   12.4549  -24.4620  -12.5384 H   0  0  0  0  0  0  0  0  0  0  0  0
    8.7705  -25.8284   -8.3273 H   0  0  0  0  0  0  0  0  0  0  0  0
    4.7971  -24.7003  -14.4601 H   0  0  0  0  0  0  0  0  0  0  0  0
   13.9222  -27.5132  -13.5573 H   0  0  0  0  0  0  0  0  0  0  0  0
    7.2303  -27.3246  -18.5628 H   0  0  0  0  0  0  0  0  0  0  0  0
   13.9486  -22.9736  -16.5623 H   0  0  0  0  0  0  0  0  0  0  0  0
  1  2  1  0  0  0  0
  1  7  2  0  0  0  0
  2 10  2  0  0  0  0
  3  5  2  0  0  0  0
  3  8  1  0  0  0  0
  4  6  1  0  0  0  0
  4  9  2  0  0  0  0
  5 13  1  0  0  0  0
  6 14  2  0  0  0  0
  7 17  1  0  0  0  0
  8 15  2  0  0  0  0
  9 16  1  0  0  0  0
 10 18  1  0  0  0  0
 11 13  2  0  0  0  0
 11 15  1  0  0  0  0
 12 14  1  0  0  0  0
 12 16  2  0  0  0  0
 13 21  1  0  0  0  0
 14 22  1  0  0  0  0
 15 27  1  0  0  0  0
 16 27  1  0  0  0  0
 17 18  2  0  0  0  0
 17 27  1  0  0  0  0
 18 36  1  0  0  0  0
 19 21  2  0  0  0  0
 19 23  1  0  0  0  0
 20 22  2  0  0  0  0
 20 24  1  0  0  0  0
 21 32  1  0  0  0  0
 22 33  1  0  0  0  0
 23 25  1  0  0  0  0
 23 28  2  0  0  0  0
 24 26  1  0  0  0  0
 24 29  2  0  0  0  0
 25 30  2  0  0  0  0
 25 34  1  0  0  0  0
 26 31  2  0  0  0  0
 26 35  1  0  0  0  0
  1 37  1  0  0  0  0
  2 38  1  0  0  0  0
  3 39  1  0  0  0  0
  4 40  1  0  0  0  0
  5 41  1  0  0  0  0
  6 42  1  0  0  0  0
  7 43  1  0  0  0  0
  8 44  1  0  0  0  0
  9 45  1  0  0  0  0
 10 46  1  0  0  0  0
 11 47  1  0  0  0  0
 12 48  1  0  0  0  0
 19 49  1  0  0  0  0
 20 50  1  0  0  0  0
 27 51  1  0  0  0  0
 32 52  1  0  0  0  0
 33 53  1  0  0  0  0
 34 54  1  0  0  0  0
 35 55  1  0  0  0  0
M  END
> <Hybrid2>
-3.469390392303467

> <Hybrid2>
-3.469390

$$$$
CHEMBL86133
  -OEChem-02152218473D

 55 57  0     1  0  0  0  0  0999 V2000
    7.4857  -29.7983   -9.9323 C   0  0  0  0  0  0  0  0  0  0  0  0
    6.3422  -29.7425   -9.1355 C   0  0  0  0  0  0  0  0  0  0  0  0
    8.2908  -22.9779  -11.2568 C   0  0  0  0  0  0  0  0  0  0  0  0
   12.4019  -27.2440   -8.2572 C   0  0  0  0  0  0  0  0  0  0  0  0
    7.7474  -23.4108  -12.4663 C   0  0  0  0  0  0  0  0  0  0  0  0
   13.1156  -27.3139   -9.4536 C   0  0  0  0  0  0  0  0  0  0  0  0
    8.3107  -28.6795  -10.0477 C   0  0  0  0  0  0  0  0  0  0  0  0
    8.6688  -23.9088  -10.2892 C   0  0  0  0  0  0  0  0  0  0  0  0
   11.0484  -26.9069   -8.2712 C   0  0  0  0  0  0  0  0  0  0  0  0
    6.0236  -28.5678   -8.4542 C   0  0  0  0  0  0  0  0  0  0  0  0
    7.9598  -25.7054  -11.7405 C   0  0  0  0  0  0  0  0  0  0  0  0
   11.1225  -26.7093  -10.6779 C   0  0  0  0  0  0  0  0  0  0  0  0
    7.5819  -24.7745  -12.7081 C   0  0  0  0  0  0  0  0  0  0  0  0
   12.4760  -27.0465  -10.6639 C   0  0  0  0  0  0  0  0  0  0  0  0
    8.5033  -25.2725  -10.5310 C   0  0  0  0  0  0  0  0  0  0  0  0
   10.4087  -26.6395   -9.4815 C   0  0  0  0  0  0  0  0  0  0  0  0
    7.9921  -27.5048   -9.3663 C   0  0  0  0  0  0  0  0  0  0  0  0
    6.8485  -27.4489   -8.5696 C   0  0  0  0  0  0  0  0  0  0  0  0
    7.6917  -26.0359  -14.8209 C   0  0  0  0  0  0  0  0  0  0  0  0
   13.3566  -26.0514  -12.7378 C   0  0  0  0  0  0  0  0  0  0  0  0
    7.0144  -25.2260  -13.9692 C   0  0  0  0  0  0  0  0  0  0  0  0
   13.2205  -27.1185  -11.9116 C   0  0  0  0  0  0  0  0  0  0  0  0
    7.1563  -26.5147  -16.1181 C   0  0  0  0  0  0  0  0  0  0  0  0
   14.0995  -26.0806  -14.0208 C   0  0  0  0  0  0  0  0  0  0  0  0
    8.0599  -27.4027  -16.9157 C   0  0  0  0  0  0  0  0  0  0  0  0
   14.1349  -24.7968  -14.7902 C   0  0  0  0  0  0  0  0  0  0  0  0
    8.9088  -26.2674   -9.4966 C   0  0  2  0  0  0  0  0  0  0  0  0
    6.0708  -26.2331  -16.5969 O   0  0  0  0  0  0  0  0  0  0  0  0
   14.6549  -27.0500  -14.5092 O   0  0  0  0  0  0  0  0  0  0  0  0
    9.1674  -27.7142  -16.5283 O   0  0  0  0  0  0  0  0  0  0  0  0
   13.5879  -23.7889  -14.3923 O   0  0  0  0  0  0  0  0  0  0  0  0
    5.7394  -24.7455  -14.2349 O   0  0  0  0  0  0  0  0  0  0  0  0
   13.7583  -28.3670  -12.1932 O   0  0  0  0  0  0  0  0  0  0  0  0
    7.4614  -27.7329  -18.0679 O   0  0  0  0  0  0  0  0  0  0  0  0
   14.8108  -24.9774  -15.9328 O   0  0  0  0  0  0  0  0  0  0  0  0
    6.5343  -26.3247   -7.9109 F   0  0  0  0  0  0  0  0  0  0  0  0
    7.7336  -30.7130  -10.4634 H   0  0  0  0  0  0  0  0  0  0  0  0
    5.6996  -30.6134   -9.0462 H   0  0  0  0  0  0  0  0  0  0  0  0
    8.4200  -21.9160  -11.0690 H   0  0  0  0  0  0  0  0  0  0  0  0
   12.9002  -27.4527   -7.3150 H   0  0  0  0  0  0  0  0  0  0  0  0
    7.4573  -22.6730  -13.2106 H   0  0  0  0  0  0  0  0  0  0  0  0
   14.1702  -27.5777   -9.4263 H   0  0  0  0  0  0  0  0  0  0  0  0
    9.1992  -28.7321  -10.6713 H   0  0  0  0  0  0  0  0  0  0  0  0
    9.0919  -23.5627   -9.3498 H   0  0  0  0  0  0  0  0  0  0  0  0
   10.4998  -26.8553   -7.3344 H   0  0  0  0  0  0  0  0  0  0  0  0
    5.1334  -28.5241   -7.8334 H   0  0  0  0  0  0  0  0  0  0  0  0
    7.8330  -26.7706  -11.9228 H   0  0  0  0  0  0  0  0  0  0  0  0
   10.6177  -26.4992  -11.6187 H   0  0  0  0  0  0  0  0  0  0  0  0
    8.6965  -26.3685  -14.5749 H   0  0  0  0  0  0  0  0  0  0  0  0
   12.8987  -25.1000  -12.4807 H   0  0  0  0  0  0  0  0  0  0  0  0
    8.7743  -25.7613   -8.5149 H   0  0  0  0  0  0  0  0  0  0  0  0
    5.4397  -25.0882  -15.0799 H   0  0  0  0  0  0  0  0  0  0  0  0
   14.2306  -28.3293  -13.0279 H   0  0  0  0  0  0  0  0  0  0  0  0
    8.0302  -28.2973  -18.6338 H   0  0  0  0  0  0  0  0  0  0  0  0
   14.8384  -24.1642  -16.4808 H   0  0  0  0  0  0  0  0  0  0  0  0
  1  2  1  0  0  0  0
  1  7  2  0  0  0  0
  2 10  2  0  0  0  0
  3  5  2  0  0  0  0
  3  8  1  0  0  0  0
  4  6  1  0  0  0  0
  4  9  2  0  0  0  0
  5 13  1  0  0  0  0
  6 14  2  0  0  0  0
  7 17  1  0  0  0  0
  8 15  2  0  0  0  0
  9 16  1  0  0  0  0
 10 18  1  0  0  0  0
 11 13  2  0  0  0  0
 11 15  1  0  0  0  0
 12 14  1  0  0  0  0
 12 16  2  0  0  0  0
 13 21  1  0  0  0  0
 14 22  1  0  0  0  0
 15 27  1  0  0  0  0
 16 27  1  0  0  0  0
 17 18  2  0  0  0  0
 17 27  1  0  0  0  0
 18 36  1  0  0  0  0
 19 21  2  0  0  0  0
 19 23  1  0  0  0  0
 20 22  2  0  0  0  0
 20 24  1  0  0  0  0
 21 32  1  0  0  0  0
 22 33  1  0  0  0  0
 23 25  1  0  0  0  0
 23 28  2  0  0  0  0
 24 26  1  0  0  0  0
 24 29  2  0  0  0  0
 25 30  2  0  0  0  0
 25 34  1  0  0  0  0
 26 31  2  0  0  0  0
 26 35  1  0  0  0  0
  1 37  1  0  0  0  0
  2 38  1  0  0  0  0
  3 39  1  0  0  0  0
  4 40  1  0  0  0  0
  5 41  1  0  0  0  0
  6 42  1  0  0  0  0
  7 43  1  0  0  0  0
  8 44  1  0  0  0  0
  9 45  1  0  0  0  0
 10 46  1  0  0  0  0
 11 47  1  0  0  0  0
 12 48  1  0  0  0  0
 19 49  1  0  0  0  0
 20 50  1  0  0  0  0
 27 51  1  0  0  0  0
 32 52  1  0  0  0  0
 33 53  1  0  0  0  0
 34 54  1  0  0  0  0
 35 55  1  0  0  0  0
M  END
> <Hybrid2>
-3.469390392303467

> <Hybrid2>
-2.673390

$$$$
CHEMBL407451
  -OEChem-02152218473D

 47 49  0     1  0  0  0  0  0999 V2000
   12.1719  -25.3950  -12.6011 C   0  0  0  0  0  0  0  0  0  0  0  0
   12.3719  -27.6780  -11.8362 C   0  0  0  0  0  0  0  0  0  0  0  0
   13.4979  -25.1576  -12.2395 C   0  0  0  0  0  0  0  0  0  0  0  0
   13.6980  -27.4406  -11.4746 C   0  0  0  0  0  0  0  0  0  0  0  0
   11.6088  -26.6552  -12.3994 C   0  0  0  0  0  0  0  0  0  0  0  0
    7.6591  -24.0412   -9.6875 C   0  0  0  0  0  0  0  0  0  0  0  0
   14.2610  -26.1804  -11.6763 C   0  0  0  0  0  0  0  0  0  0  0  0
    7.7976  -25.2455  -10.3469 C   0  0  0  0  0  0  0  0  0  0  0  0
    6.7929  -24.0450   -8.6133 C   0  0  0  0  0  0  0  0  0  0  0  0
    6.3302  -26.2479   -8.9296 C   0  0  0  0  0  0  0  0  0  0  0  0
    8.6795  -25.3768  -11.4963 C   0  0  0  0  0  0  0  0  0  0  0  0
    5.9457  -29.8514   -7.5985 C   0  0  0  0  0  0  0  0  0  0  0  0
    5.0325  -30.3636   -8.7010 C   0  0  0  0  0  0  0  0  0  0  0  0
    6.6105  -28.5534   -8.0366 C   0  0  0  0  0  0  0  0  0  0  0  0
    4.0273  -29.2923   -9.1152 C   0  0  0  0  0  0  0  0  0  0  0  0
    5.5756  -27.5021   -8.4985 C   0  0  2  0  0  0  0  0  0  0  0  0
    3.6492  -27.0839   -9.9512 C   0  0  0  0  0  0  0  0  0  0  0  0
   10.1817  -26.9116  -12.7891 C   0  0  0  0  0  0  0  0  0  0  0  0
    7.1461  -26.3729   -9.9936 N   0  0  0  0  0  0  0  0  0  0  0  0
    6.1094  -25.1343   -8.2052 N   0  0  0  0  0  0  0  0  0  0  0  0
    4.6850  -28.0480   -9.5550 N   0  0  2  0  0  0  0  0  0  0  0  0
    9.2665  -26.6298  -11.7066 N   0  0  0  0  0  0  0  0  0  0  0  0
    8.9042  -24.4011  -12.2339 O   0  0  0  0  0  0  0  0  0  0  0  0
    8.3266  -22.9260  -10.0651 O   0  0  0  0  0  0  0  0  0  0  0  0
    6.5927  -22.8928   -7.8992 O   0  0  0  0  0  0  0  0  0  0  0  0
   15.5353  -25.9534  -11.3315 F   0  0  0  0  0  0  0  0  0  0  0  0
   11.5850  -24.5916  -13.0386 H   0  0  0  0  0  0  0  0  0  0  0  0
   11.9418  -28.6631  -11.6755 H   0  0  0  0  0  0  0  0  0  0  0  0
   13.9366  -24.1769  -12.3971 H   0  0  0  0  0  0  0  0  0  0  0  0
   14.2923  -28.2365  -11.0357 H   0  0  0  0  0  0  0  0  0  0  0  0
    5.3649  -29.6793   -6.6842 H   0  0  0  0  0  0  0  0  0  0  0  0
    6.7073  -30.6024   -7.3615 H   0  0  0  0  0  0  0  0  0  0  0  0
    5.6321  -30.6652   -9.5691 H   0  0  0  0  0  0  0  0  0  0  0  0
    4.4997  -31.2563   -8.3543 H   0  0  0  0  0  0  0  0  0  0  0  0
    7.2074  -28.1553   -7.2058 H   0  0  0  0  0  0  0  0  0  0  0  0
    7.3173  -28.7708   -8.8499 H   0  0  0  0  0  0  0  0  0  0  0  0
    3.4224  -29.6971   -9.9360 H   0  0  0  0  0  0  0  0  0  0  0  0
    3.3451  -29.0919   -8.2781 H   0  0  0  0  0  0  0  0  0  0  0  0
    4.9599  -27.2141   -7.6173 H   0  0  0  0  0  0  0  0  0  0  0  0
    4.1251  -26.1491  -10.2823 H   0  0  0  0  0  0  0  0  0  0  0  0
    3.0536  -27.5038  -10.7752 H   0  0  0  0  0  0  0  0  0  0  0  0
    2.9932  -26.8773   -9.0928 H   0  0  0  0  0  0  0  0  0  0  0  0
    9.8965  -26.2874  -13.6429 H   0  0  0  0  0  0  0  0  0  0  0  0
   10.0371  -27.9555  -13.0866 H   0  0  0  0  0  0  0  0  0  0  0  0
    9.0988  -27.3748  -11.0382 H   0  0  0  0  0  0  0  0  0  0  0  0
    8.8898  -23.1073  -10.8378 H   0  0  0  0  0  0  0  0  0  0  0  0
    5.9630  -23.0567   -7.1834 H   0  0  0  0  0  0  0  0  0  0  0  0
  1  3  2  0  0  0  0
  1  5  1  0  0  0  0
  2  4  1  0  0  0  0
  2  5  2  0  0  0  0
  3  7  1  0  0  0  0
  4  7  2  0  0  0  0
  5 18  1  0  0  0  0
  6  8  2  0  0  0  0
  6  9  1  0  0  0  0
  6 24  1  0  0  0  0
  7 26  1  0  0  0  0
  8 11  1  0  0  0  0
  8 19  1  0  0  0  0
  9 20  2  0  0  0  0
  9 25  1  0  0  0  0
 10 16  1  0  0  0  0
 10 19  2  0  0  0  0
 10 20  1  0  0  0  0
 11 22  1  0  0  0  0
 11 23  2  0  0  0  0
 12 13  1  0  0  0  0
 12 14  1  0  0  0  0
 13 15  1  0  0  0  0
 14 16  1  0  0  0  0
 15 21  1  0  0  0  0
 16 21  1  0  0  0  0
 17 21  1  0  0  0  0
 18 22  1  0  0  0  0
  1 27  1  0  0  0  0
  2 28  1  0  0  0  0
  3 29  1  0  0  0  0
  4 30  1  0  0  0  0
 12 31  1  0  0  0  0
 12 32  1  0  0  0  0
 13 33  1  0  0  0  0
 13 34  1  0  0  0  0
 14 35  1  0  0  0  0
 14 36  1  0  0  0  0
 15 37  1  0  0  0  0
 15 38  1  0  0  0  0
 16 39  1  0  0  0  0
 17 40  1  0  0  0  0
 17 41  1  0  0  0  0
 17 42  1  0  0  0  0
 18 43  1  0  0  0  0
 18 44  1  0  0  0  0
 22 45  1  0  0  0  0
 24 46  1  0  0  0  0
 25 47  1  0  0  0  0
M  END
> <Hybrid2>
-1.8592703342437744

> <Hybrid2>
-1.859270

$$$$
CHEMBL407451
  -OEChem-02152218473D

 47 49  0     1  0  0  0  0  0999 V2000
   12.7327  -26.4567  -12.1503 C   0  0  0  0  0  0  0  0  0  0  0  0
   12.2580  -28.8225  -12.0286 C   0  0  0  0  0  0  0  0  0  0  0  0
   14.0053  -26.6851  -11.6269 C   0  0  0  0  0  0  0  0  0  0  0  0
   13.5307  -29.0509  -11.5053 C   0  0  0  0  0  0  0  0  0  0  0  0
   11.8590  -27.5254  -12.3511 C   0  0  0  0  0  0  0  0  0  0  0  0
    7.8759  -24.4599   -9.7667 C   0  0  0  0  0  0  0  0  0  0  0  0
   14.4043  -27.9821  -11.3044 C   0  0  0  0  0  0  0  0  0  0  0  0
    8.2304  -25.6739  -10.3189 C   0  0  0  0  0  0  0  0  0  0  0  0
    6.9260  -24.5132   -8.7672 C   0  0  0  0  0  0  0  0  0  0  0  0
    6.7883  -26.7749   -8.9494 C   0  0  0  0  0  0  0  0  0  0  0  0
    9.2203  -25.7568  -11.3815 C   0  0  0  0  0  0  0  0  0  0  0  0
    6.7668  -30.3025   -7.3808 C   0  0  0  0  0  0  0  0  0  0  0  0
    6.0307  -31.0067   -8.5096 C   0  0  0  0  0  0  0  0  0  0  0  0
    7.2905  -28.9564   -7.8630 C   0  0  0  0  0  0  0  0  0  0  0  0
    4.9335  -30.1138   -9.0828 C   0  0  0  0  0  0  0  0  0  0  0  0
    6.1708  -28.0905   -8.4845 C   0  0  2  0  0  0  0  0  0  0  0  0
    4.3426  -28.0380  -10.1128 C   0  0  0  0  0  0  0  0  0  0  0  0
   10.4893  -27.2804  -12.9151 C   0  0  0  0  0  0  0  0  0  0  0  0
    7.7047  -26.8550   -9.9329 N   0  0  0  0  0  0  0  0  0  0  0  0
    6.3589  -25.6576   -8.3322 N   0  0  0  0  0  0  0  0  0  0  0  0
    5.4574  -28.8219   -9.5632 N   0  0  2  0  0  0  0  0  0  0  0  0
    9.5138  -27.0321  -11.8780 N   0  0  0  0  0  0  0  0  0  0  0  0
    9.7835  -24.7303  -11.8007 O   0  0  0  0  0  0  0  0  0  0  0  0
    8.4211  -23.2902  -10.1747 O   0  0  0  0  0  0  0  0  0  0  0  0
    6.5127  -23.3557   -8.1616 O   0  0  0  0  0  0  0  0  0  0  0  0
   15.6274  -28.2019  -10.8044 F   0  0  0  0  0  0  0  0  0  0  0  0
   12.4305  -25.4425  -12.3978 H   0  0  0  0  0  0  0  0  0  0  0  0
   11.5842  -29.6614  -12.1819 H   0  0  0  0  0  0  0  0  0  0  0  0
   14.6857  -25.8533  -11.4712 H   0  0  0  0  0  0  0  0  0  0  0  0
   13.8415  -30.0605  -11.2537 H   0  0  0  0  0  0  0  0  0  0  0  0
    6.0895  -30.1530   -6.5312 H   0  0  0  0  0  0  0  0  0  0  0  0
    7.5968  -30.9240   -7.0274 H   0  0  0  0  0  0  0  0  0  0  0  0
    6.7395  -31.2784   -9.3018 H   0  0  0  0  0  0  0  0  0  0  0  0
    5.5919  -31.9399   -8.1387 H   0  0  0  0  0  0  0  0  0  0  0  0
    7.7534  -28.4264   -7.0206 H   0  0  0  0  0  0  0  0  0  0  0  0
    8.0891  -29.1266   -8.5988 H   0  0  0  0  0  0  0  0  0  0  0  0
    4.4626  -30.6509   -9.9154 H   0  0  0  0  0  0  0  0  0  0  0  0
    4.1592  -29.9554   -8.3201 H   0  0  0  0  0  0  0  0  0  0  0  0
    5.4467  -27.8334   -7.6794 H   0  0  0  0  0  0  0  0  0  0  0  0
    4.7183  -27.0700  -10.4758 H   0  0  0  0  0  0  0  0  0  0  0  0
    3.8832  -28.5889  -10.9467 H   0  0  0  0  0  0  0  0  0  0  0  0
    3.5915  -27.8684   -9.3273 H   0  0  0  0  0  0  0  0  0  0  0  0
   10.4971  -26.4139  -13.5852 H   0  0  0  0  0  0  0  0  0  0  0  0
   10.1453  -28.1403  -13.4993 H   0  0  0  0  0  0  0  0  0  0  0  0
    9.0714  -27.8424  -11.4569 H   0  0  0  0  0  0  0  0  0  0  0  0
    9.0696  -23.4419  -10.8842 H   0  0  0  0  0  0  0  0  0  0  0  0
    5.8492  -23.5580   -7.4874 H   0  0  0  0  0  0  0  0  0  0  0  0
  1  3  2  0  0  0  0
  1  5  1  0  0  0  0
  2  4  1  0  0  0  0
  2  5  2  0  0  0  0
  3  7  1  0  0  0  0
  4  7  2  0  0  0  0
  5 18  1  0  0  0  0
  6  8  2  0  0  0  0
  6  9  1  0  0  0  0
  6 24  1  0  0  0  0
  7 26  1  0  0  0  0
  8 11  1  0  0  0  0
  8 19  1  0  0  0  0
  9 20  2  0  0  0  0
  9 25  1  0  0  0  0
 10 16  1  0  0  0  0
 10 19  2  0  0  0  0
 10 20  1  0  0  0  0
 11 22  1  0  0  0  0
 11 23  2  0  0  0  0
 12 13  1  0  0  0  0
 12 14  1  0  0  0  0
 13 15  1  0  0  0  0
 14 16  1  0  0  0  0
 15 21  1  0  0  0  0
 16 21  1  0  0  0  0
 17 21  1  0  0  0  0
 18 22  1  0  0  0  0
  1 27  1  0  0  0  0
  2 28  1  0  0  0  0
  3 29  1  0  0  0  0
  4 30  1  0  0  0  0
 12 31  1  0  0  0  0
 12 32  1  0  0  0  0
 13 33  1  0  0  0  0
 13 34  1  0  0  0  0
 14 35  1  0  0  0  0
 14 36  1  0  0  0  0
 15 37  1  0  0  0  0
 15 38  1  0  0  0  0
 16 39  1  0  0  0  0
 17 40  1  0  0  0  0
 17 41  1  0  0  0  0
 17 42  1  0  0  0  0
 18 43  1  0  0  0  0
 18 44  1  0  0  0  0
 22 45  1  0  0  0  0
 24 46  1  0  0  0  0
 25 47  1  0  0  0  0
M  END
> <Hybrid2>
-1.8592703342437744

> <Hybrid2>
-1.538718

$$$$
CHEMBL217776
  -OEChem-02152218473D

 50 52  0     1  0  0  0  0  0999 V2000
   15.3937  -27.2487  -10.5601 C   0  0  0  0  0  0  0  0  0  0  0  0
   15.2788  -25.8771  -10.7861 C   0  0  0  0  0  0  0  0  0  0  0  0
   14.3918  -28.1142  -10.9992 C   0  0  0  0  0  0  0  0  0  0  0  0
   14.1619  -25.3709  -11.4509 C   0  0  0  0  0  0  0  0  0  0  0  0
   13.2750  -27.6081  -11.6641 C   0  0  0  0  0  0  0  0  0  0  0  0
    5.8727  -28.6447   -8.2533 C   0  0  0  0  0  0  0  0  0  0  0  0
    6.4669  -30.2051   -9.9995 C   0  0  0  0  0  0  0  0  0  0  0  0
    4.5207  -28.8705   -8.5116 C   0  0  0  0  0  0  0  0  0  0  0  0
    5.1149  -30.4310  -10.2577 C   0  0  0  0  0  0  0  0  0  0  0  0
    6.8458  -29.3119   -8.9973 C   0  0  0  0  0  0  0  0  0  0  0  0
   13.1600  -26.2364  -11.8900 C   0  0  0  0  0  0  0  0  0  0  0  0
    8.9074  -24.3659  -10.0334 C   0  0  0  0  0  0  0  0  0  0  0  0
    4.1418  -29.7637   -9.5138 C   0  0  0  0  0  0  0  0  0  0  0  0
    9.3729  -25.6649  -10.0158 C   0  0  0  0  0  0  0  0  0  0  0  0
    9.5064  -23.5295  -10.9532 C   0  0  0  0  0  0  0  0  0  0  0  0
   10.8516  -25.2109  -11.6815 C   0  0  0  0  0  0  0  0  0  0  0  0
    8.8263  -26.6475   -9.0929 C   0  0  0  0  0  0  0  0  0  0  0  0
   12.4491  -27.0148  -14.5504 C   0  0  0  0  0  0  0  0  0  0  0  0
   10.2241  -26.1730  -14.2137 C   0  0  0  0  0  0  0  0  0  0  0  0
    8.3013  -29.0699   -8.7193 C   0  0  0  0  0  0  0  0  0  0  0  0
   11.9475  -25.6878  -12.6114 C   0  0  2  0  0  0  0  0  0  0  0  0
   10.3473  -26.1231  -10.8288 N   0  0  0  0  0  0  0  0  0  0  0  0
   10.4851  -23.9201  -11.7958 N   0  0  0  0  0  0  0  0  0  0  0  0
    8.8298  -27.9829   -9.5117 N   0  0  0  0  0  0  0  0  0  0  0  0
   11.4303  -26.6760  -13.5574 N   0  0  0  0  0  0  0  0  0  0  0  0
    8.3627  -26.2925   -7.9949 O   0  0  0  0  0  0  0  0  0  0  0  0
    7.9276  -23.9347   -9.2052 O   0  0  0  0  0  0  0  0  0  0  0  0
    9.1078  -22.2215  -11.0412 O   0  0  0  0  0  0  0  0  0  0  0  0
    2.8435  -29.9827   -9.7601 F   0  0  0  0  0  0  0  0  0  0  0  0
   16.2641  -27.6428  -10.0436 H   0  0  0  0  0  0  0  0  0  0  0  0
   16.0593  -25.2031  -10.4452 H   0  0  0  0  0  0  0  0  0  0  0  0
   14.4815  -29.1823  -10.8245 H   0  0  0  0  0  0  0  0  0  0  0  0
   14.0807  -24.3008  -11.6224 H   0  0  0  0  0  0  0  0  0  0  0  0
   12.4993  -28.2899  -12.0025 H   0  0  0  0  0  0  0  0  0  0  0  0
    6.1582  -27.9464   -7.4709 H   0  0  0  0  0  0  0  0  0  0  0  0
    7.2181  -30.7297  -10.5841 H   0  0  0  0  0  0  0  0  0  0  0  0
    3.7630  -28.3517   -7.9320 H   0  0  0  0  0  0  0  0  0  0  0  0
    4.8195  -31.1259  -11.0382 H   0  0  0  0  0  0  0  0  0  0  0  0
   13.3482  -27.3909  -14.0404 H   0  0  0  0  0  0  0  0  0  0  0  0
   12.0591  -27.7907  -15.2256 H   0  0  0  0  0  0  0  0  0  0  0  0
   12.7062  -26.1176  -15.1326 H   0  0  0  0  0  0  0  0  0  0  0  0
    9.4694  -25.9234  -13.4534 H   0  0  0  0  0  0  0  0  0  0  0  0
   10.4714  -25.2721  -14.7944 H   0  0  0  0  0  0  0  0  0  0  0  0
    9.8243  -26.9452  -14.8874 H   0  0  0  0  0  0  0  0  0  0  0  0
    8.4569  -28.8241   -7.6632 H   0  0  0  0  0  0  0  0  0  0  0  0
    8.8966  -29.9629   -8.9366 H   0  0  0  0  0  0  0  0  0  0  0  0
   12.2539  -24.8410  -13.2394 H   0  0  0  0  0  0  0  0  0  0  0  0
    9.1622  -28.2100  -10.4432 H   0  0  0  0  0  0  0  0  0  0  0  0
    7.6237  -24.6561   -8.6271 H   0  0  0  0  0  0  0  0  0  0  0  0
    9.6183  -21.7693  -11.7273 H   0  0  0  0  0  0  0  0  0  0  0  0
  1  2  1  0  0  0  0
  1  3  2  0  0  0  0
  2  4  2  0  0  0  0
  3  5  1  0  0  0  0
  4 11  1  0  0  0  0
  5 11  2  0  0  0  0
  6  8  2  0  0  0  0
  6 10  1  0  0  0  0
  7  9  1  0  0  0  0
  7 10  2  0  0  0  0
  8 13  1  0  0  0  0
  9 13  2  0  0  0  0
 10 20  1  0  0  0  0
 11 21  1  0  0  0  0
 12 14  2  0  0  0  0
 12 15  1  0  0  0  0
 12 27  1  0  0  0  0
 13 29  1  0  0  0  0
 14 17  1  0  0  0  0
 14 22  1  0  0  0  0
 15 23  2  0  0  0  0
 15 28  1  0  0  0  0
 16 21  1  0  0  0  0
 16 22  2  0  0  0  0
 16 23  1  0  0  0  0
 17 24  1  0  0  0  0
 17 26  2  0  0  0  0
 18 25  1  0  0  0  0
 19 25  1  0  0  0  0
 20 24  1  0  0  0  0
 21 25  1  0  0  0  0
  1 30  1  0  0  0  0
  2 31  1  0  0  0  0
  3 32  1  0  0  0  0
  4 33  1  0  0  0  0
  5 34  1  0  0  0  0
  6 35  1  0  0  0  0
  7 36  1  0  0  0  0
  8 37  1  0  0  0  0
  9 38  1  0  0  0  0
 18 39  1  0  0  0  0
 18 40  1  0  0  0  0
 18 41  1  0  0  0  0
 19 42  1  0  0  0  0
 19 43  1  0  0  0  0
 19 44  1  0  0  0  0
 20 45  1  0  0  0  0
 20 46  1  0  0  0  0
 21 47  1  0  0  0  0
 24 48  1  0  0  0  0
 27 49  1  0  0  0  0
 28 50  1  0  0  0  0
M  END
> <Hybrid2>
-3.3488831520080566

> <Hybrid2>
-3.348883

$$$$
CHEMBL217776
  -OEChem-02152218473D

 50 52  0     1  0  0  0  0  0999 V2000
   14.6489  -26.7733  -11.3233 C   0  0  0  0  0  0  0  0  0  0  0  0
   14.4358  -25.3948  -11.3169 C   0  0  0  0  0  0  0  0  0  0  0  0
   13.6566  -27.6303  -11.7995 C   0  0  0  0  0  0  0  0  0  0  0  0
   13.2303  -24.8733  -11.7865 C   0  0  0  0  0  0  0  0  0  0  0  0
   12.4512  -27.1088  -12.2691 C   0  0  0  0  0  0  0  0  0  0  0  0
    5.5067  -29.1739   -8.3946 C   0  0  0  0  0  0  0  0  0  0  0  0
    6.0039  -30.4037  -10.4139 C   0  0  0  0  0  0  0  0  0  0  0  0
    4.1499  -29.4526   -8.5590 C   0  0  0  0  0  0  0  0  0  0  0  0
    4.6471  -30.6824  -10.5783 C   0  0  0  0  0  0  0  0  0  0  0  0
    6.4337  -29.6494   -9.3221 C   0  0  0  0  0  0  0  0  0  0  0  0
   12.2380  -25.7303  -12.2626 C   0  0  0  0  0  0  0  0  0  0  0  0
    8.1015  -24.4700   -9.7464 C   0  0  0  0  0  0  0  0  0  0  0  0
    3.7201  -30.2069   -9.6508 C   0  0  0  0  0  0  0  0  0  0  0  0
    8.6374  -25.7203   -9.9785 C   0  0  0  0  0  0  0  0  0  0  0  0
    8.5558  -23.4629  -10.5732 C   0  0  0  0  0  0  0  0  0  0  0  0
    9.9100  -24.9143  -11.6808 C   0  0  0  0  0  0  0  0  0  0  0  0
    8.2436  -26.8684   -9.1767 C   0  0  0  0  0  0  0  0  0  0  0  0
   11.3019  -26.1418  -14.9354 C   0  0  0  0  0  0  0  0  0  0  0  0
    9.0802  -25.5206  -14.2644 C   0  0  0  0  0  0  0  0  0  0  0  0
    7.8944  -29.3504   -9.1454 C   0  0  0  0  0  0  0  0  0  0  0  0
   10.9294  -25.1650  -12.7722 C   0  0  2  0  0  0  0  0  0  0  0  0
    9.5471  -25.9792  -10.9407 N   0  0  0  0  0  0  0  0  0  0  0  0
    9.4630  -23.6503  -11.5542 N   0  0  0  0  0  0  0  0  0  0  0  0
    8.2779  -28.1207   -9.8007 N   0  0  0  0  0  0  0  0  0  0  0  0
   10.3733  -26.0313  -13.8110 N   0  0  0  0  0  0  0  0  0  0  0  0
    7.8762  -26.7187   -7.9980 O   0  0  0  0  0  0  0  0  0  0  0  0
    7.1895  -24.2406   -8.7729 O   0  0  0  0  0  0  0  0  0  0  0  0
    8.0786  -22.1883  -10.4150 O   0  0  0  0  0  0  0  0  0  0  0  0
    2.4175  -30.4769   -9.8073 F   0  0  0  0  0  0  0  0  0  0  0  0
   15.5881  -27.1791  -10.9589 H   0  0  0  0  0  0  0  0  0  0  0  0
   15.2087  -24.7273  -10.9473 H   0  0  0  0  0  0  0  0  0  0  0  0
   13.8227  -28.7034  -11.8056 H   0  0  0  0  0  0  0  0  0  0  0  0
   13.0729  -23.7980  -11.7776 H   0  0  0  0  0  0  0  0  0  0  0  0
   11.6837  -27.7841  -12.6380 H   0  0  0  0  0  0  0  0  0  0  0  0
    5.8319  -28.5848   -7.5412 H   0  0  0  0  0  0  0  0  0  0  0  0
    6.7190  -30.7786  -11.1415 H   0  0  0  0  0  0  0  0  0  0  0  0
    3.4282  -29.0831   -7.8367 H   0  0  0  0  0  0  0  0  0  0  0  0
    4.3121  -31.2692  -11.4284 H   0  0  0  0  0  0  0  0  0  0  0  0
   12.2681  -26.5269  -14.5772 H   0  0  0  0  0  0  0  0  0  0  0  0
   10.8882  -26.8312  -15.6861 H   0  0  0  0  0  0  0  0  0  0  0  0
   11.4479  -25.1504  -15.3890 H   0  0  0  0  0  0  0  0  0  0  0  0
    8.3948  -25.4438  -13.4075 H   0  0  0  0  0  0  0  0  0  0  0  0
    9.2163  -24.5264  -14.7151 H   0  0  0  0  0  0  0  0  0  0  0  0
    8.6566  -26.2072  -15.0122 H   0  0  0  0  0  0  0  0  0  0  0  0
    8.1438  -29.2583   -8.0827 H   0  0  0  0  0  0  0  0  0  0  0  0
    8.5128  -30.1555   -9.5560 H   0  0  0  0  0  0  0  0  0  0  0  0
   11.1225  -24.2129  -13.2834 H   0  0  0  0  0  0  0  0  0  0  0  0
    8.5250  -28.1789  -10.7832 H   0  0  0  0  0  0  0  0  0  0  0  0
    6.9870  -25.0614   -8.2910 H   0  0  0  0  0  0  0  0  0  0  0  0
    8.4902  -21.6018  -11.0649 H   0  0  0  0  0  0  0  0  0  0  0  0
  1  2  1  0  0  0  0
  1  3  2  0  0  0  0
  2  4  2  0  0  0  0
  3  5  1  0  0  0  0
  4 11  1  0  0  0  0
  5 11  2  0  0  0  0
  6  8  2  0  0  0  0
  6 10  1  0  0  0  0
  7  9  1  0  0  0  0
  7 10  2  0  0  0  0
  8 13  1  0  0  0  0
  9 13  2  0  0  0  0
 10 20  1  0  0  0  0
 11 21  1  0  0  0  0
 12 14  2  0  0  0  0
 12 15  1  0  0  0  0
 12 27  1  0  0  0  0
 13 29  1  0  0  0  0
 14 17  1  0  0  0  0
 14 22  1  0  0  0  0
 15 23  2  0  0  0  0
 15 28  1  0  0  0  0
 16 21  1  0  0  0  0
 16 22  2  0  0  0  0
 16 23  1  0  0  0  0
 17 24  1  0  0  0  0
 17 26  2  0  0  0  0
 18 25  1  0  0  0  0
 19 25  1  0  0  0  0
 20 24  1  0  0  0  0
 21 25  1  0  0  0  0
  1 30  1  0  0  0  0
  2 31  1  0  0  0  0
  3 32  1  0  0  0  0
  4 33  1  0  0  0  0
  5 34  1  0  0  0  0
  6 35  1  0  0  0  0
  7 36  1  0  0  0  0
  8 37  1  0  0  0  0
  9 38  1  0  0  0  0
 18 39  1  0  0  0  0
 18 40  1  0  0  0  0
 18 41  1  0  0  0  0
 19 42  1  0  0  0  0
 19 43  1  0  0  0  0
 19 44  1  0  0  0  0
 20 45  1  0  0  0  0
 20 46  1  0  0  0  0
 21 47  1  0  0  0  0
 24 48  1  0  0  0  0
 27 49  1  0  0  0  0
 28 50  1  0  0  0  0
M  END
> <Hybrid2>
-3.3488831520080566

> <Hybrid2>
-3.017915

$$$$
CHEMBL340775
  -OEChem-02152218473D

 42 44  0     0  0  0  0  0  0999 V2000
   11.7157  -26.0748  -12.2272 C   0  0  0  0  0  0  0  0  0  0  0  0
    5.1221  -29.7158   -7.2631 C   0  0  0  0  0  0  0  0  0  0  0  0
   12.9064  -26.2696  -12.9271 C   0  0  0  0  0  0  0  0  0  0  0  0
    4.0901  -30.6293   -7.0485 C   0  0  0  0  0  0  0  0  0  0  0  0
   12.5963  -27.3502  -10.3739 C   0  0  0  0  0  0  0  0  0  0  0  0
    3.8345  -28.6743   -9.0222 C   0  0  0  0  0  0  0  0  0  0  0  0
   11.5607  -26.6151  -10.9506 C   0  0  0  0  0  0  0  0  0  0  0  0
    4.9943  -28.7382   -8.2499 C   0  0  0  0  0  0  0  0  0  0  0  0
   13.9421  -27.0047  -12.3503 C   0  0  0  0  0  0  0  0  0  0  0  0
    2.9303  -30.5654   -7.8208 C   0  0  0  0  0  0  0  0  0  0  0  0
   13.7871  -27.5450  -11.0737 C   0  0  0  0  0  0  0  0  0  0  0  0
    2.8025  -29.5879   -8.8076 C   0  0  0  0  0  0  0  0  0  0  0  0
    8.0839  -26.8962   -9.4573 C   0  0  0  0  0  0  0  0  0  0  0  0
    9.2919  -27.2483  -10.2669 C   0  0  0  0  0  0  0  0  0  0  0  0
    7.0507  -27.9727   -9.3455 C   0  0  0  0  0  0  0  0  0  0  0  0
   10.3402  -26.4129  -10.2320 C   0  0  0  0  0  0  0  0  0  0  0  0
    6.0518  -27.7997   -8.4679 C   0  0  0  0  0  0  0  0  0  0  0  0
    9.2998  -28.5227  -11.0611 C   0  0  0  0  0  0  0  0  0  0  0  0
    7.1804  -29.2079  -10.1897 C   0  0  0  0  0  0  0  0  0  0  0  0
    8.5750  -29.6025  -10.3904 N   0  0  0  0  0  0  0  0  0  0  0  0
    7.9518  -25.8022   -8.9182 O   0  0  0  0  0  0  0  0  0  0  0  0
   15.0999  -27.1877  -13.0444 O   0  0  0  0  0  0  0  0  0  0  0  0
    1.9299  -31.4635   -7.6013 O   0  0  0  0  0  0  0  0  0  0  0  0
   14.7916  -28.2654  -10.5012 O   0  0  0  0  0  0  0  0  0  0  0  0
    1.6746  -29.5168   -9.5684 O   0  0  0  0  0  0  0  0  0  0  0  0
   10.9177  -25.4986  -12.6893 H   0  0  0  0  0  0  0  0  0  0  0  0
    6.0197  -29.7773   -6.6524 H   0  0  0  0  0  0  0  0  0  0  0  0
   13.0207  -25.8462  -13.9213 H   0  0  0  0  0  0  0  0  0  0  0  0
    4.1961  -31.3885   -6.2783 H   0  0  0  0  0  0  0  0  0  0  0  0
   12.4841  -27.7747   -9.3786 H   0  0  0  0  0  0  0  0  0  0  0  0
    3.7262  -27.9149   -9.7935 H   0  0  0  0  0  0  0  0  0  0  0  0
   10.2597  -25.5386   -9.5909 H   0  0  0  0  0  0  0  0  0  0  0  0
    6.0368  -26.8686   -7.9069 H   0  0  0  0  0  0  0  0  0  0  0  0
    8.8390  -28.3673  -12.0437 H   0  0  0  0  0  0  0  0  0  0  0  0
   10.3359  -28.8308  -11.2499 H   0  0  0  0  0  0  0  0  0  0  0  0
    6.6231  -30.0315   -9.7261 H   0  0  0  0  0  0  0  0  0  0  0  0
    6.7312  -29.0469  -11.1769 H   0  0  0  0  0  0  0  0  0  0  0  0
    8.6232  -30.4566  -10.9454 H   0  0  0  0  0  0  0  0  0  0  0  0
   15.0451  -26.7509  -13.9089 H   0  0  0  0  0  0  0  0  0  0  0  0
    2.1757  -32.0709   -6.8859 H   0  0  0  0  0  0  0  0  0  0  0  0
   14.5256  -28.5689   -9.6190 H   0  0  0  0  0  0  0  0  0  0  0  0
    1.7446  -28.7873  -10.2041 H   0  0  0  0  0  0  0  0  0  0  0  0
  1  3  2  0  0  0  0
  1  7  1  0  0  0  0
  2  4  2  0  0  0  0
  2  8  1  0  0  0  0
  3  9  1  0  0  0  0
  4 10  1  0  0  0  0
  5  7  2  0  0  0  0
  5 11  1  0  0  0  0
  6  8  2  0  0  0  0
  6 12  1  0  0  0  0
  7 16  1  0  0  0  0
  8 17  1  0  0  0  0
  9 11  2  0  0  0  0
  9 22  1  0  0  0  0
 10 12  2  0  0  0  0
 10 23  1  0  0  0  0
 11 24  1  0  0  0  0
 12 25  1  0  0  0  0
 13 14  1  0  0  0  0
 13 15  1  0  0  0  0
 13 21  2  0  0  0  0
 14 16  2  0  0  0  0
 14 18  1  0  0  0  0
 15 17  2  0  0  0  0
 15 19  1  0  0  0  0
 18 20  1  0  0  0  0
 19 20  1  0  0  0  0
  1 26  1  0  0  0  0
  2 27  1  0  0  0  0
  3 28  1  0  0  0  0
  4 29  1  0  0  0  0
  5 30  1  0  0  0  0
  6 31  1  0  0  0  0
 16 32  1  0  0  0  0
 17 33  1  0  0  0  0
 18 34  1  0  0  0  0
 18 35  1  0  0  0  0
 19 36  1  0  0  0  0
 19 37  1  0  0  0  0
 20 38  1  0  0  0  0
 22 39  1  0  0  0  0
 23 40  1  0  0  0  0
 24 41  1  0  0  0  0
 25 42  1  0  0  0  0
M  END
> <Hybrid2>
-7.133638381958008

> <Hybrid2>
-7.133638

$$$$
CHEMBL340775
  -OEChem-02152218473D

 42 44  0     0  0  0  0  0  0999 V2000
   12.1001  -26.4129  -11.3496 C   0  0  0  0  0  0  0  0  0  0  0  0
    4.3657  -29.5107   -7.8914 C   0  0  0  0  0  0  0  0  0  0  0  0
   13.3905  -26.7026  -11.7928 C   0  0  0  0  0  0  0  0  0  0  0  0
    3.2442  -30.3399   -7.9051 C   0  0  0  0  0  0  0  0  0  0  0  0
   12.4797  -27.7476   -9.3718 C   0  0  0  0  0  0  0  0  0  0  0  0
    3.5515  -28.3770   -9.8635 C   0  0  0  0  0  0  0  0  0  0  0  0
   11.6447  -26.9354  -10.1390 C   0  0  0  0  0  0  0  0  0  0  0  0
    4.5194  -28.5292   -8.8706 C   0  0  0  0  0  0  0  0  0  0  0  0
   14.2256  -27.5148  -11.0255 C   0  0  0  0  0  0  0  0  0  0  0  0
    2.2763  -30.1877   -8.8979 C   0  0  0  0  0  0  0  0  0  0  0  0
   13.7702  -28.0373   -9.8150 C   0  0  0  0  0  0  0  0  0  0  0  0
    2.4300  -29.2062   -9.8772 C   0  0  0  0  0  0  0  0  0  0  0  0
    7.9241  -26.9387   -9.3945 C   0  0  0  0  0  0  0  0  0  0  0  0
    9.2418  -27.3868   -9.9436 C   0  0  0  0  0  0  0  0  0  0  0  0
    6.8100  -27.9305   -9.5111 C   0  0  0  0  0  0  0  0  0  0  0  0
   10.3220  -26.6360   -9.6834 C   0  0  0  0  0  0  0  0  0  0  0  0
    5.6685  -27.6771   -8.8548 C   0  0  0  0  0  0  0  0  0  0  0  0
    9.3142  -28.6604  -10.7358 C   0  0  0  0  0  0  0  0  0  0  0  0
    7.0145  -29.1747  -10.3268 C   0  0  0  0  0  0  0  0  0  0  0  0
    8.3858  -29.6780  -10.2423 N   0  0  0  0  0  0  0  0  0  0  0  0
    7.7690  -25.8360   -8.8797 O   0  0  0  0  0  0  0  0  0  0  0  0
   15.4836  -27.7901  -11.4697 O   0  0  0  0  0  0  0  0  0  0  0  0
    1.1858  -31.0040   -8.9001 O   0  0  0  0  0  0  0  0  0  0  0  0
   14.5769  -28.8325   -9.0581 O   0  0  0  0  0  0  0  0  0  0  0  0
    1.4915  -29.0493  -10.8521 O   0  0  0  0  0  0  0  0  0  0  0  0
   11.4611  -25.7774  -11.9579 H   0  0  0  0  0  0  0  0  0  0  0  0
    5.1111  -29.6404   -7.1106 H   0  0  0  0  0  0  0  0  0  0  0  0
   13.7390  -26.2925  -12.7368 H   0  0  0  0  0  0  0  0  0  0  0  0
    3.1306  -31.1026   -7.1395 H   0  0  0  0  0  0  0  0  0  0  0  0
   12.1329  -28.1589   -8.4263 H   0  0  0  0  0  0  0  0  0  0  0  0
    3.6632  -27.6138  -10.6306 H   0  0  0  0  0  0  0  0  0  0  0  0
   10.1793  -25.7562   -9.0612 H   0  0  0  0  0  0  0  0  0  0  0  0
    5.6106  -26.7460   -8.2967 H   0  0  0  0  0  0  0  0  0  0  0  0
    9.0786  -28.4724  -11.7900 H   0  0  0  0  0  0  0  0  0  0  0  0
   10.3400  -29.0493  -10.7122 H   0  0  0  0  0  0  0  0  0  0  0  0
    6.3119  -29.9507   -9.9981 H   0  0  0  0  0  0  0  0  0  0  0  0
    6.7916  -28.9820  -11.3829 H   0  0  0  0  0  0  0  0  0  0  0  0
    8.4809  -30.5350  -10.7868 H   0  0  0  0  0  0  0  0  0  0  0  0
   15.6416  -27.3530  -12.3212 H   0  0  0  0  0  0  0  0  0  0  0  0
    1.2316  -31.6265   -8.1575 H   0  0  0  0  0  0  0  0  0  0  0  0
   14.1126  -29.1115   -8.2533 H   0  0  0  0  0  0  0  0  0  0  0  0
    1.7468  -28.3296  -11.4503 H   0  0  0  0  0  0  0  0  0  0  0  0
  1  3  2  0  0  0  0
  1  7  1  0  0  0  0
  2  4  2  0  0  0  0
  2  8  1  0  0  0  0
  3  9  1  0  0  0  0
  4 10  1  0  0  0  0
  5  7  2  0  0  0  0
  5 11  1  0  0  0  0
  6  8  2  0  0  0  0
  6 12  1  0  0  0  0
  7 16  1  0  0  0  0
  8 17  1  0  0  0  0
  9 11  2  0  0  0  0
  9 22  1  0  0  0  0
 10 12  2  0  0  0  0
 10 23  1  0  0  0  0
 11 24  1  0  0  0  0
 12 25  1  0  0  0  0
 13 14  1  0  0  0  0
 13 15  1  0  0  0  0
 13 21  2  0  0  0  0
 14 16  2  0  0  0  0
 14 18  1  0  0  0  0
 15 17  2  0  0  0  0
 15 19  1  0  0  0  0
 18 20  1  0  0  0  0
 19 20  1  0  0  0  0
  1 26  1  0  0  0  0
  2 27  1  0  0  0  0
  3 28  1  0  0  0  0
  4 29  1  0  0  0  0
  5 30  1  0  0  0  0
  6 31  1  0  0  0  0
 16 32  1  0  0  0  0
 17 33  1  0  0  0  0
 18 34  1  0  0  0  0
 18 35  1  0  0  0  0
 19 36  1  0  0  0  0
 19 37  1  0  0  0  0
 20 38  1  0  0  0  0
 22 39  1  0  0  0  0
 23 40  1  0  0  0  0
 24 41  1  0  0  0  0
 25 42  1  0  0  0  0
M  END
> <Hybrid2>
-7.133638381958008

> <Hybrid2>
-6.337999

$$$$
CHEMBL419981
  -OEChem-02152218473D

 41 43  0     0  0  0  0  0  0999 V2000
   12.4804  -27.8014   -9.5413 C   0  0  0  0  0  0  0  0  0  0  0  0
    3.5549  -27.8378  -10.2082 C   0  0  0  0  0  0  0  0  0  0  0  0
   13.7519  -28.1621   -9.9872 C   0  0  0  0  0  0  0  0  0  0  0  0
    2.3902  -28.6007  -10.2910 C   0  0  0  0  0  0  0  0  0  0  0  0
   12.2180  -26.3554  -11.4589 C   0  0  0  0  0  0  0  0  0  0  0  0
    4.2497  -29.1082   -8.2742 C   0  0  0  0  0  0  0  0  0  0  0  0
   11.7135  -26.8981  -10.2771 C   0  0  0  0  0  0  0  0  0  0  0  0
    4.4847  -28.0915   -9.1999 C   0  0  0  0  0  0  0  0  0  0  0  0
   14.2565  -27.6194  -11.1689 C   0  0  0  0  0  0  0  0  0  0  0  0
    2.1551  -29.6174   -9.3653 C   0  0  0  0  0  0  0  0  0  0  0  0
   13.4896  -26.7161  -11.9048 C   0  0  0  0  0  0  0  0  0  0  0  0
    3.0849  -29.8711   -8.3569 C   0  0  0  0  0  0  0  0  0  0  0  0
    7.9904  -26.6873   -9.5721 C   0  0  0  0  0  0  0  0  0  0  0  0
    9.2831  -27.1926  -10.1255 C   0  0  0  0  0  0  0  0  0  0  0  0
    6.8220  -27.6000   -9.7574 C   0  0  0  0  0  0  0  0  0  0  0  0
   10.4080  -26.5303   -9.8208 C   0  0  0  0  0  0  0  0  0  0  0  0
    5.6807  -27.3104   -9.1168 C   0  0  0  0  0  0  0  0  0  0  0  0
    9.2758  -28.4322  -10.9657 C   0  0  0  0  0  0  0  0  0  0  0  0
    6.9804  -28.8148  -10.6190 C   0  0  0  0  0  0  0  0  0  0  0  0
    7.8963  -25.6048   -9.0033 O   0  0  0  0  0  0  0  0  0  0  0  0
    8.2959  -29.3520  -10.4853 O   0  0  0  0  0  0  0  0  0  0  0  0
   15.4997  -27.9798  -11.5934 O   0  0  0  0  0  0  0  0  0  0  0  0
    1.0137  -30.3551   -9.4572 O   0  0  0  0  0  0  0  0  0  0  0  0
   13.9727  -26.1791  -13.0599 O   0  0  0  0  0  0  0  0  0  0  0  0
    2.8652  -30.8609   -7.4470 O   0  0  0  0  0  0  0  0  0  0  0  0
   12.1001  -28.2336   -8.6188 H   0  0  0  0  0  0  0  0  0  0  0  0
    3.7249  -27.0494  -10.9376 H   0  0  0  0  0  0  0  0  0  0  0  0
   14.3443  -28.8662   -9.4091 H   0  0  0  0  0  0  0  0  0  0  0  0
    1.6698  -28.3978  -11.0789 H   0  0  0  0  0  0  0  0  0  0  0  0
   11.6265  -25.6506  -12.0392 H   0  0  0  0  0  0  0  0  0  0  0  0
    4.9697  -29.3131   -7.4849 H   0  0  0  0  0  0  0  0  0  0  0  0
   10.3181  -25.6717   -9.1597 H   0  0  0  0  0  0  0  0  0  0  0  0
    5.6619  -26.4043   -8.5162 H   0  0  0  0  0  0  0  0  0  0  0  0
    9.0743  -28.1912  -12.0163 H   0  0  0  0  0  0  0  0  0  0  0  0
   10.2440  -28.9425  -10.9225 H   0  0  0  0  0  0  0  0  0  0  0  0
    6.2800  -29.6024  -10.3213 H   0  0  0  0  0  0  0  0  0  0  0  0
    6.7831  -28.5759  -11.6710 H   0  0  0  0  0  0  0  0  0  0  0  0
   15.8961  -28.6109  -10.9724 H   0  0  0  0  0  0  0  0  0  0  0  0
    0.4787  -30.0530  -10.2079 H   0  0  0  0  0  0  0  0  0  0  0  0
   13.3208  -25.5736  -13.4463 H   0  0  0  0  0  0  0  0  0  0  0  0
    3.6015  -30.9065   -6.8171 H   0  0  0  0  0  0  0  0  0  0  0  0
  1  3  2  0  0  0  0
  1  7  1  0  0  0  0
  2  4  2  0  0  0  0
  2  8  1  0  0  0  0
  3  9  1  0  0  0  0
  4 10  1  0  0  0  0
  5  7  2  0  0  0  0
  5 11  1  0  0  0  0
  6  8  2  0  0  0  0
  6 12  1  0  0  0  0
  7 16  1  0  0  0  0
  8 17  1  0  0  0  0
  9 11  2  0  0  0  0
  9 22  1  0  0  0  0
 10 12  2  0  0  0  0
 10 23  1  0  0  0  0
 11 24  1  0  0  0  0
 12 25  1  0  0  0  0
 13 14  1  0  0  0  0
 13 15  1  0  0  0  0
 13 20  2  0  0  0  0
 14 16  2  0  0  0  0
 14 18  1  0  0  0  0
 15 17  2  0  0  0  0
 15 19  1  0  0  0  0
 18 21  1  0  0  0  0
 19 21  1  0  0  0  0
  1 26  1  0  0  0  0
  2 27  1  0  0  0  0
  3 28  1  0  0  0  0
  4 29  1  0  0  0  0
  5 30  1  0  0  0  0
  6 31  1  0  0  0  0
 16 32  1  0  0  0  0
 17 33  1  0  0  0  0
 18 34  1  0  0  0  0
 18 35  1  0  0  0  0
 19 36  1  0  0  0  0
 19 37  1  0  0  0  0
 22 38  1  0  0  0  0
 23 39  1  0  0  0  0
 24 40  1  0  0  0  0
 25 41  1  0  0  0  0
M  END
> <Hybrid2>
-5.67962646484375

> <Hybrid2>
-5.679626

$$$$
CHEMBL419981
  -OEChem-02152218473D

 41 43  0     0  0  0  0  0  0999 V2000
   12.0704  -26.4717  -11.4172 C   0  0  0  0  0  0  0  0  0  0  0  0
    4.2653  -28.9703   -7.6652 C   0  0  0  0  0  0  0  0  0  0  0  0
   13.3683  -26.8332  -11.7780 C   0  0  0  0  0  0  0  0  0  0  0  0
    3.1506  -29.8032   -7.5697 C   0  0  0  0  0  0  0  0  0  0  0  0
   12.4083  -27.4414   -9.2303 C   0  0  0  0  0  0  0  0  0  0  0  0
    3.5076  -28.2040   -9.8275 C   0  0  0  0  0  0  0  0  0  0  0  0
   11.5904  -26.7757  -10.1432 C   0  0  0  0  0  0  0  0  0  0  0  0
    4.4438  -28.1706   -8.7941 C   0  0  0  0  0  0  0  0  0  0  0  0
   14.1862  -27.4989  -10.8651 C   0  0  0  0  0  0  0  0  0  0  0  0
    2.2143  -29.8366   -8.6031 C   0  0  0  0  0  0  0  0  0  0  0  0
   13.7062  -27.8030   -9.5912 C   0  0  0  0  0  0  0  0  0  0  0  0
    2.3928  -29.0370   -9.7321 C   0  0  0  0  0  0  0  0  0  0  0  0
    7.8550  -26.6577   -9.4833 C   0  0  0  0  0  0  0  0  0  0  0  0
    9.1828  -27.1870   -9.9185 C   0  0  0  0  0  0  0  0  0  0  0  0
    6.7497  -27.6627   -9.4576 C   0  0  0  0  0  0  0  0  0  0  0  0
   10.2597  -26.4023   -9.7724 C   0  0  0  0  0  0  0  0  0  0  0  0
    5.5861  -27.3143   -8.8907 C   0  0  0  0  0  0  0  0  0  0  0  0
    9.2633  -28.5787  -10.4657 C   0  0  0  0  0  0  0  0  0  0  0  0
    6.9942  -29.0241  -10.0321 C   0  0  0  0  0  0  0  0  0  0  0  0
    7.6860  -25.4852   -9.1657 O   0  0  0  0  0  0  0  0  0  0  0  0
    8.3403  -29.4322   -9.7901 O   0  0  0  0  0  0  0  0  0  0  0  0
   15.4518  -27.8465  -11.2300 O   0  0  0  0  0  0  0  0  0  0  0  0
    1.1301  -30.6544   -8.4975 O   0  0  0  0  0  0  0  0  0  0  0  0
   14.4960  -28.4537   -8.6918 O   0  0  0  0  0  0  0  0  0  0  0  0
    1.4852  -29.0623  -10.7477 O   0  0  0  0  0  0  0  0  0  0  0  0
   11.4449  -25.9522  -12.1391 H   0  0  0  0  0  0  0  0  0  0  0  0
    4.9860  -28.9541   -6.8512 H   0  0  0  0  0  0  0  0  0  0  0  0
   13.7360  -26.5936  -12.7721 H   0  0  0  0  0  0  0  0  0  0  0  0
    3.0176  -30.4237   -6.6876 H   0  0  0  0  0  0  0  0  0  0  0  0
   12.0422  -27.6820   -8.2345 H   0  0  0  0  0  0  0  0  0  0  0  0
    3.6387  -27.5834  -10.7113 H   0  0  0  0  0  0  0  0  0  0  0  0
   10.1083  -25.4272   -9.3156 H   0  0  0  0  0  0  0  0  0  0  0  0
    5.5032  -26.3016   -8.5037 H   0  0  0  0  0  0  0  0  0  0  0  0
    9.0567  -28.5878  -11.5426 H   0  0  0  0  0  0  0  0  0  0  0  0
   10.2620  -29.0030  -10.3163 H   0  0  0  0  0  0  0  0  0  0  0  0
    6.3433  -29.7710   -9.5651 H   0  0  0  0  0  0  0  0  0  0  0  0
    6.7919  -29.0354  -11.1098 H   0  0  0  0  0  0  0  0  0  0  0  0
   15.6273  -27.5643  -12.1414 H   0  0  0  0  0  0  0  0  0  0  0  0
    1.1561  -31.1389   -7.6574 H   0  0  0  0  0  0  0  0  0  0  0  0
   14.0156  -28.5886   -7.8599 H   0  0  0  0  0  0  0  0  0  0  0  0
    1.7548  -28.4535  -11.4532 H   0  0  0  0  0  0  0  0  0  0  0  0
  1  3  2  0  0  0  0
  1  7  1  0  0  0  0
  2  4  2  0  0  0  0
  2  8  1  0  0  0  0
  3  9  1  0  0  0  0
  4 10  1  0  0  0  0
  5  7  2  0  0  0  0
  5 11  1  0  0  0  0
  6  8  2  0  0  0  0
  6 12  1  0  0  0  0
  7 16  1  0  0  0  0
  8 17  1  0  0  0  0
  9 11  2  0  0  0  0
  9 22  1  0  0  0  0
 10 12  2  0  0  0  0
 10 23  1  0  0  0  0
 11 24  1  0  0  0  0
 12 25  1  0  0  0  0
 13 14  1  0  0  0  0
 13 15  1  0  0  0  0
 13 20  2  0  0  0  0
 14 16  2  0  0  0  0
 14 18  1  0  0  0  0
 15 17  2  0  0  0  0
 15 19  1  0  0  0  0
 18 21  1  0  0  0  0
 19 21  1  0  0  0  0
  1 26  1  0  0  0  0
  2 27  1  0  0  0  0
  3 28  1  0  0  0  0
  4 29  1  0  0  0  0
  5 30  1  0  0  0  0
  6 31  1  0  0  0  0
 16 32  1  0  0  0  0
 17 33  1  0  0  0  0
 18 34  1  0  0  0  0
 18 35  1  0  0  0  0
 19 36  1  0  0  0  0
 19 37  1  0  0  0  0
 22 38  1  0  0  0  0
 23 39  1  0  0  0  0
 24 40  1  0  0  0  0
 25 41  1  0  0  0  0
M  END
> <Hybrid2>
-5.67962646484375

> <Hybrid2>
-5.593923

$$$$
CHEMBL130911
  -OEChem-02152218473D

 41 43  0     0  0  0  0  0  0999 V2000
   11.7061  -26.2756  -12.5922 C   0  0  0  0  0  0  0  0  0  0  0  0
    4.7222  -28.9653   -7.3427 C   0  0  0  0  0  0  0  0  0  0  0  0
   12.9132  -26.5202  -13.2469 C   0  0  0  0  0  0  0  0  0  0  0  0
    3.8540  -29.9467   -6.8645 C   0  0  0  0  0  0  0  0  0  0  0  0
   12.5375  -27.4184  -10.6326 C   0  0  0  0  0  0  0  0  0  0  0  0
    4.4301  -29.8020   -9.5903 C   0  0  0  0  0  0  0  0  0  0  0  0
   11.5183  -26.7247  -11.2850 C   0  0  0  0  0  0  0  0  0  0  0  0
    5.0102  -28.8929   -8.7057 C   0  0  0  0  0  0  0  0  0  0  0  0
   13.9324  -27.2140  -12.5946 C   0  0  0  0  0  0  0  0  0  0  0  0
    3.2738  -30.8557   -7.7492 C   0  0  0  0  0  0  0  0  0  0  0  0
   13.7445  -27.6631  -11.2874 C   0  0  0  0  0  0  0  0  0  0  0  0
    3.5619  -30.7834   -9.1121 C   0  0  0  0  0  0  0  0  0  0  0  0
    8.0123  -26.8995   -9.8666 C   0  0  0  0  0  0  0  0  0  0  0  0
    9.2342  -27.3061  -10.6158 C   0  0  0  0  0  0  0  0  0  0  0  0
    7.2197  -28.0469   -9.3419 C   0  0  0  0  0  0  0  0  0  0  0  0
   10.2818  -26.4715  -10.6131 C   0  0  0  0  0  0  0  0  0  0  0  0
    5.8981  -27.8852   -9.1959 C   0  0  0  0  0  0  0  0  0  0  0  0
    9.1840  -28.5893  -11.3819 C   0  0  0  0  0  0  0  0  0  0  0  0
    7.9636  -29.2822   -8.9457 C   0  0  0  0  0  0  0  0  0  0  0  0
    7.6887  -25.7304   -9.6990 O   0  0  0  0  0  0  0  0  0  0  0  0
   15.1064  -27.4464  -13.2452 O   0  0  0  0  0  0  0  0  0  0  0  0
    2.4277  -31.8094   -7.2694 O   0  0  0  0  0  0  0  0  0  0  0  0
   14.7327  -28.3425  -10.6410 O   0  0  0  0  0  0  0  0  0  0  0  0
    3.0017  -31.6667   -9.9850 O   0  0  0  0  0  0  0  0  0  0  0  0
    8.8757  -30.0351  -10.3252 S   0  0  0  0  0  0  0  0  0  0  0  0
   10.9213  -25.7325  -13.1131 H   0  0  0  0  0  0  0  0  0  0  0  0
    5.1659  -28.2629   -6.6413 H   0  0  0  0  0  0  0  0  0  0  0  0
   13.0530  -26.1679  -14.2653 H   0  0  0  0  0  0  0  0  0  0  0  0
    3.6340  -29.9977   -5.8016 H   0  0  0  0  0  0  0  0  0  0  0  0
   12.3996  -27.7718   -9.6130 H   0  0  0  0  0  0  0  0  0  0  0  0
    4.6488  -29.7525  -10.6548 H   0  0  0  0  0  0  0  0  0  0  0  0
   10.1858  -25.5554  -10.0370 H   0  0  0  0  0  0  0  0  0  0  0  0
    5.4781  -26.9299   -9.4979 H   0  0  0  0  0  0  0  0  0  0  0  0
    8.3981  -28.5372  -12.1552 H   0  0  0  0  0  0  0  0  0  0  0  0
   10.1288  -28.7727  -11.9217 H   0  0  0  0  0  0  0  0  0  0  0  0
    8.6936  -29.0726   -8.1451 H   0  0  0  0  0  0  0  0  0  0  0  0
    7.2636  -30.0277   -8.5304 H   0  0  0  0  0  0  0  0  0  0  0  0
   15.0740  -27.0714  -14.1393 H   0  0  0  0  0  0  0  0  0  0  0  0
    2.3353  -31.7223   -6.3076 H   0  0  0  0  0  0  0  0  0  0  0  0
   14.4443  -28.5830   -9.7465 H   0  0  0  0  0  0  0  0  0  0  0  0
    3.3031  -31.4819  -10.8884 H   0  0  0  0  0  0  0  0  0  0  0  0
  1  3  2  0  0  0  0
  1  7  1  0  0  0  0
  2  4  2  0  0  0  0
  2  8  1  0  0  0  0
  3  9  1  0  0  0  0
  4 10  1  0  0  0  0
  5  7  2  0  0  0  0
  5 11  1  0  0  0  0
  6  8  2  0  0  0  0
  6 12  1  0  0  0  0
  7 16  1  0  0  0  0
  8 17  1  0  0  0  0
  9 11  2  0  0  0  0
  9 21  1  0  0  0  0
 10 12  2  0  0  0  0
 10 22  1  0  0  0  0
 11 23  1  0  0  0  0
 12 24  1  0  0  0  0
 13 14  1  0  0  0  0
 13 15  1  0  0  0  0
 13 20  2  0  0  0  0
 14 16  2  0  0  0  0
 14 18  1  0  0  0  0
 15 17  2  0  0  0  0
 15 19  1  0  0  0  0
 18 25  1  0  0  0  0
 19 25  1  0  0  0  0
  1 26  1  0  0  0  0
  2 27  1  0  0  0  0
  3 28  1  0  0  0  0
  4 29  1  0  0  0  0
  5 30  1  0  0  0  0
  6 31  1  0  0  0  0
 16 32  1  0  0  0  0
 17 33  1  0  0  0  0
 18 34  1  0  0  0  0
 18 35  1  0  0  0  0
 19 36  1  0  0  0  0
 19 37  1  0  0  0  0
 21 38  1  0  0  0  0
 22 39  1  0  0  0  0
 23 40  1  0  0  0  0
 24 41  1  0  0  0  0
M  END
> <Hybrid2>
-6.596366882324219

> <Hybrid2>
-6.596367

$$$$
CHEMBL130911
  -OEChem-02152218473D

 41 43  0     0  0  0  0  0  0999 V2000
   12.6397  -27.8724   -9.8403 C   0  0  0  0  0  0  0  0  0  0  0  0
    5.1539  -29.9077   -7.5555 C   0  0  0  0  0  0  0  0  0  0  0  0
   13.9363  -28.0993  -10.3016 C   0  0  0  0  0  0  0  0  0  0  0  0
    4.0989  -30.7865   -7.3101 C   0  0  0  0  0  0  0  0  0  0  0  0
   12.2473  -26.3630  -11.6856 C   0  0  0  0  0  0  0  0  0  0  0  0
    3.8144  -28.7607   -9.2070 C   0  0  0  0  0  0  0  0  0  0  0  0
   11.7951  -27.0042  -10.5323 C   0  0  0  0  0  0  0  0  0  0  0  0
    5.0116  -28.8947   -8.5039 C   0  0  0  0  0  0  0  0  0  0  0  0
   14.3885  -27.4580  -11.4548 C   0  0  0  0  0  0  0  0  0  0  0  0
    2.9016  -30.6524   -8.0132 C   0  0  0  0  0  0  0  0  0  0  0  0
   13.5440  -26.5899  -12.1468 C   0  0  0  0  0  0  0  0  0  0  0  0
    2.7594  -29.6395   -8.9616 C   0  0  0  0  0  0  0  0  0  0  0  0
    8.0870  -27.1190   -9.8019 C   0  0  0  0  0  0  0  0  0  0  0  0
    9.4005  -27.5176  -10.4003 C   0  0  0  0  0  0  0  0  0  0  0  0
    7.0335  -28.1774   -9.6923 C   0  0  0  0  0  0  0  0  0  0  0  0
   10.4652  -26.7739  -10.0607 C   0  0  0  0  0  0  0  0  0  0  0  0
    6.0923  -27.9924   -8.7533 C   0  0  0  0  0  0  0  0  0  0  0  0
    9.5177  -28.6790  -11.3365 C   0  0  0  0  0  0  0  0  0  0  0  0
    7.0249  -29.3745  -10.5901 C   0  0  0  0  0  0  0  0  0  0  0  0
    7.8839  -25.9714   -9.4113 O   0  0  0  0  0  0  0  0  0  0  0  0
   15.6570  -27.6882  -11.8947 O   0  0  0  0  0  0  0  0  0  0  0  0
    1.8790  -31.5172   -7.7642 O   0  0  0  0  0  0  0  0  0  0  0  0
   13.9755  -25.9575  -13.2737 O   0  0  0  0  0  0  0  0  0  0  0  0
    1.5949  -29.4999   -9.6547 O   0  0  0  0  0  0  0  0  0  0  0  0
    8.6631  -30.1284  -10.6808 S   0  0  0  0  0  0  0  0  0  0  0  0
   12.3009  -28.3802   -8.9406 H   0  0  0  0  0  0  0  0  0  0  0  0
    6.0807  -30.0239   -6.9989 H   0  0  0  0  0  0  0  0  0  0  0  0
   14.5892  -28.7766   -9.7577 H   0  0  0  0  0  0  0  0  0  0  0  0
    4.2163  -31.5735   -6.5701 H   0  0  0  0  0  0  0  0  0  0  0  0
   11.5953  -25.6848  -12.2316 H   0  0  0  0  0  0  0  0  0  0  0  0
    3.6947  -27.9733   -9.9480 H   0  0  0  0  0  0  0  0  0  0  0  0
   10.3000  -25.9609   -9.3592 H   0  0  0  0  0  0  0  0  0  0  0  0
    6.1485  -27.0799   -8.1665 H   0  0  0  0  0  0  0  0  0  0  0  0
    9.0943  -28.4205  -12.3132 H   0  0  0  0  0  0  0  0  0  0  0  0
   10.5641  -28.9567  -11.5023 H   0  0  0  0  0  0  0  0  0  0  0  0
    6.3265  -30.1389  -10.2330 H   0  0  0  0  0  0  0  0  0  0  0  0
    6.7019  -29.0883  -11.5971 H   0  0  0  0  0  0  0  0  0  0  0  0
   16.1084  -28.3120  -11.3046 H   0  0  0  0  0  0  0  0  0  0  0  0
    2.1391  -32.1564   -7.0823 H   0  0  0  0  0  0  0  0  0  0  0  0
   13.2724  -25.3927  -13.6311 H   0  0  0  0  0  0  0  0  0  0  0  0
    1.6593  -28.7538  -10.2713 H   0  0  0  0  0  0  0  0  0  0  0  0
  1  3  2  0  0  0  0
  1  7  1  0  0  0  0
  2  4  2  0  0  0  0
  2  8  1  0  0  0  0
  3  9  1  0  0  0  0
  4 10  1  0  0  0  0
  5  7  2  0  0  0  0
  5 11  1  0  0  0  0
  6  8  2  0  0  0  0
  6 12  1  0  0  0  0
  7 16  1  0  0  0  0
  8 17  1  0  0  0  0
  9 11  2  0  0  0  0
  9 21  1  0  0  0  0
 10 12  2  0  0  0  0
 10 22  1  0  0  0  0
 11 23  1  0  0  0  0
 12 24  1  0  0  0  0
 13 14  1  0  0  0  0
 13 15  1  0  0  0  0
 13 20  2  0  0  0  0
 14 16  2  0  0  0  0
 14 18  1  0  0  0  0
 15 17  2  0  0  0  0
 15 19  1  0  0  0  0
 18 25  1  0  0  0  0
 19 25  1  0  0  0  0
  1 26  1  0  0  0  0
  2 27  1  0  0  0  0
  3 28  1  0  0  0  0
  4 29  1  0  0  0  0
  5 30  1  0  0  0  0
  6 31  1  0  0  0  0
 16 32  1  0  0  0  0
 17 33  1  0  0  0  0
 18 34  1  0  0  0  0
 18 35  1  0  0  0  0
 19 36  1  0  0  0  0
 19 37  1  0  0  0  0
 21 38  1  0  0  0  0
 22 39  1  0  0  0  0
 23 40  1  0  0  0  0
 24 41  1  0  0  0  0
M  END
> <Hybrid2>
-6.596366882324219

> <Hybrid2>
-5.667397

$$$$
CHEMBL370620
  -OEChem-02152218483D

 48 50  0     0  0  0  0  0  0999 V2000
    3.3698  -29.9028   -9.3122 C   0  0  0  0  0  0  0  0  0  0  0  0
   14.2528  -26.6701  -11.6717 C   0  0  0  0  0  0  0  0  0  0  0  0
    3.7441  -29.4371   -8.0519 C   0  0  0  0  0  0  0  0  0  0  0  0
    4.3338  -30.0811  -10.3045 C   0  0  0  0  0  0  0  0  0  0  0  0
   13.5786  -26.0307  -12.7119 C   0  0  0  0  0  0  0  0  0  0  0  0
   13.5827  -27.5946  -10.8704 C   0  0  0  0  0  0  0  0  0  0  0  0
    5.0824  -29.1495   -7.7838 C   0  0  0  0  0  0  0  0  0  0  0  0
    5.6721  -29.7934  -10.0364 C   0  0  0  0  0  0  0  0  0  0  0  0
   12.2342  -26.3156  -12.9509 C   0  0  0  0  0  0  0  0  0  0  0  0
   12.2383  -27.8796  -11.1094 C   0  0  0  0  0  0  0  0  0  0  0  0
    6.0464  -29.3276   -8.7760 C   0  0  0  0  0  0  0  0  0  0  0  0
   11.5640  -27.2401  -12.1496 C   0  0  0  0  0  0  0  0  0  0  0  0
    7.6613  -26.6842   -9.1182 C   0  0  0  0  0  0  0  0  0  0  0  0
    8.0829  -25.6530   -9.8524 C   0  0  0  0  0  0  0  0  0  0  0  0
    8.9729  -25.8970  -11.0105 C   0  0  0  0  0  0  0  0  0  0  0  0
    8.8476  -28.3415  -10.4561 C   0  0  0  0  0  0  0  0  0  0  0  0
    6.3961  -23.9346   -9.5153 C   0  0  0  0  0  0  0  0  0  0  0  0
    7.6841  -24.3044   -9.5294 C   0  0  0  0  0  0  0  0  0  0  0  0
    5.9645  -22.5548   -9.1856 C   0  0  0  0  0  0  0  0  0  0  0  0
    4.4885  -22.3055   -9.2146 C   0  0  0  0  0  0  0  0  0  0  0  0
    7.4871  -29.0180   -8.4882 C   0  0  0  0  0  0  0  0  0  0  0  0
   10.1169  -27.5471  -12.4061 C   0  0  0  0  0  0  0  0  0  0  0  0
    8.0138  -27.9891   -9.3809 N   0  0  0  0  0  0  0  0  0  0  0  0
    9.2811  -27.2459  -11.2481 N   0  0  0  0  0  0  0  0  0  0  0  0
    9.3957  -24.9592  -11.6859 O   0  0  0  0  0  0  0  0  0  0  0  0
    9.1795  -29.5077  -10.6886 O   0  0  0  0  0  0  0  0  0  0  0  0
    6.6889  -21.6251   -8.8729 O   0  0  0  0  0  0  0  0  0  0  0  0
    3.6902  -23.1776   -9.4898 O   0  0  0  0  0  0  0  0  0  0  0  0
    8.7103  -23.4297   -9.2398 O   0  0  0  0  0  0  0  0  0  0  0  0
    4.2419  -21.0345   -8.8706 O   0  0  0  0  0  0  0  0  0  0  0  0
    2.3279  -30.1280   -9.5204 H   0  0  0  0  0  0  0  0  0  0  0  0
   15.2999  -26.4491  -11.4866 H   0  0  0  0  0  0  0  0  0  0  0  0
    2.9938  -29.2993   -7.2788 H   0  0  0  0  0  0  0  0  0  0  0  0
    4.0429  -30.4447  -11.2856 H   0  0  0  0  0  0  0  0  0  0  0  0
   14.1004  -25.3116  -13.3366 H   0  0  0  0  0  0  0  0  0  0  0  0
   14.1076  -28.0934  -10.0611 H   0  0  0  0  0  0  0  0  0  0  0  0
    5.3648  -28.7868   -6.7989 H   0  0  0  0  0  0  0  0  0  0  0  0
    6.4163  -29.9352  -10.8157 H   0  0  0  0  0  0  0  0  0  0  0  0
   11.7168  -25.8124  -13.7635 H   0  0  0  0  0  0  0  0  0  0  0  0
   11.7243  -28.6011  -10.4799 H   0  0  0  0  0  0  0  0  0  0  0  0
    7.0093  -26.5412   -8.2609 H   0  0  0  0  0  0  0  0  0  0  0  0
    5.6079  -24.6453   -9.7486 H   0  0  0  0  0  0  0  0  0  0  0  0
    7.6078  -28.6649   -7.4583 H   0  0  0  0  0  0  0  0  0  0  0  0
    8.1111  -29.9108   -8.6012 H   0  0  0  0  0  0  0  0  0  0  0  0
    9.7425  -26.9625  -13.2535 H   0  0  0  0  0  0  0  0  0  0  0  0
    9.9775  -28.6047  -12.6537 H   0  0  0  0  0  0  0  0  0  0  0  0
    8.3515  -22.5594   -9.0376 H   0  0  0  0  0  0  0  0  0  0  0  0
    3.2819  -20.8335   -8.8535 H   0  0  0  0  0  0  0  0  0  0  0  0
  1  3  1  0  0  0  0
  1  4  2  0  0  0  0
  2  5  1  0  0  0  0
  2  6  2  0  0  0  0
  3  7  2  0  0  0  0
  4  8  1  0  0  0  0
  5  9  2  0  0  0  0
  6 10  1  0  0  0  0
  7 11  1  0  0  0  0
  8 11  2  0  0  0  0
  9 12  1  0  0  0  0
 10 12  2  0  0  0  0
 11 21  1  0  0  0  0
 12 22  1  0  0  0  0
 13 14  2  0  0  0  0
 13 23  1  0  0  0  0
 14 15  1  0  0  0  0
 14 18  1  0  0  0  0
 15 24  1  0  0  0  0
 15 25  2  0  0  0  0
 16 23  1  0  0  0  0
 16 24  1  0  0  0  0
 16 26  2  0  0  0  0
 17 18  2  0  0  0  0
 17 19  1  0  0  0  0
 18 29  1  0  0  0  0
 19 20  1  0  0  0  0
 19 27  2  0  0  0  0
 20 28  2  0  0  0  0
 20 30  1  0  0  0  0
 21 23  1  0  0  0  0
 22 24  1  0  0  0  0
  1 31  1  0  0  0  0
  2 32  1  0  0  0  0
  3 33  1  0  0  0  0
  4 34  1  0  0  0  0
  5 35  1  0  0  0  0
  6 36  1  0  0  0  0
  7 37  1  0  0  0  0
  8 38  1  0  0  0  0
  9 39  1  0  0  0  0
 10 40  1  0  0  0  0
 13 41  1  0  0  0  0
 17 42  1  0  0  0  0
 21 43  1  0  0  0  0
 21 44  1  0  0  0  0
 22 45  1  0  0  0  0
 22 46  1  0  0  0  0
 29 47  1  0  0  0  0
 30 48  1  0  0  0  0
M  END
> <Hybrid2>
-6.043015003204346

> <Hybrid2>
-6.043015

$$$$
CHEMBL370620
  -OEChem-02152218483D

 48 50  0     0  0  0  0  0  0999 V2000
    4.3147  -31.0373   -9.1043 C   0  0  0  0  0  0  0  0  0  0  0  0
    6.8488  -20.9495   -8.7538 C   0  0  0  0  0  0  0  0  0  0  0  0
    4.0387  -30.0877   -8.1206 C   0  0  0  0  0  0  0  0  0  0  0  0
    5.5523  -31.0354   -9.7478 C   0  0  0  0  0  0  0  0  0  0  0  0
    5.6018  -21.5431   -8.9494 C   0  0  0  0  0  0  0  0  0  0  0  0
    7.9801  -21.4839   -9.3706 C   0  0  0  0  0  0  0  0  0  0  0  0
    5.0002  -29.1362   -7.7804 C   0  0  0  0  0  0  0  0  0  0  0  0
    6.5138  -30.0839   -9.4076 C   0  0  0  0  0  0  0  0  0  0  0  0
    5.4861  -22.6711   -9.7617 C   0  0  0  0  0  0  0  0  0  0  0  0
    7.8644  -22.6119  -10.1829 C   0  0  0  0  0  0  0  0  0  0  0  0
    6.2378  -29.1342   -8.4239 C   0  0  0  0  0  0  0  0  0  0  0  0
    6.6174  -23.2055  -10.3785 C   0  0  0  0  0  0  0  0  0  0  0  0
    8.8590  -27.5671   -9.8088 C   0  0  0  0  0  0  0  0  0  0  0  0
    9.3170  -26.8947  -10.8664 C   0  0  0  0  0  0  0  0  0  0  0  0
    8.5110  -25.7898  -11.4339 C   0  0  0  0  0  0  0  0  0  0  0  0
    6.8089  -26.2572   -9.6498 C   0  0  0  0  0  0  0  0  0  0  0  0
   11.7302  -27.1758  -10.7690 C   0  0  0  0  0  0  0  0  0  0  0  0
   10.5859  -27.2337  -11.4641 C   0  0  0  0  0  0  0  0  0  0  0  0
   13.0443  -27.5204  -11.3634 C   0  0  0  0  0  0  0  0  0  0  0  0
   14.2264  -27.4035  -10.4520 C   0  0  0  0  0  0  0  0  0  0  0  0
    7.2731  -28.1102   -8.0585 C   0  0  0  0  0  0  0  0  0  0  0  0
    6.4936  -24.4198  -11.2527 C   0  0  0  0  0  0  0  0  0  0  0  0
    7.6549  -27.2866   -9.2025 N   0  0  0  0  0  0  0  0  0  0  0  0
    7.3050  -25.5301  -10.7636 N   0  0  0  0  0  0  0  0  0  0  0  0
    8.9006  -25.1733  -12.4251 O   0  0  0  0  0  0  0  0  0  0  0  0
    5.7214  -26.0099   -9.1202 O   0  0  0  0  0  0  0  0  0  0  0  0
   13.2443  -27.9087  -12.5018 O   0  0  0  0  0  0  0  0  0  0  0  0
   14.1195  -27.0496   -9.2958 O   0  0  0  0  0  0  0  0  0  0  0  0
   10.5406  -27.6169  -12.7881 O   0  0  0  0  0  0  0  0  0  0  0  0
   15.3355  -27.7708  -11.1074 O   0  0  0  0  0  0  0  0  0  0  0  0
    3.5664  -31.7790   -9.3681 H   0  0  0  0  0  0  0  0  0  0  0  0
    6.9385  -20.0704   -8.1223 H   0  0  0  0  0  0  0  0  0  0  0  0
    3.0755  -30.0897   -7.6186 H   0  0  0  0  0  0  0  0  0  0  0  0
    5.7679  -31.7752  -10.5130 H   0  0  0  0  0  0  0  0  0  0  0  0
    4.7207  -21.1265   -8.4701 H   0  0  0  0  0  0  0  0  0  0  0  0
    8.9509  -21.0213   -9.2194 H   0  0  0  0  0  0  0  0  0  0  0  0
    4.7763  -28.4000   -7.0129 H   0  0  0  0  0  0  0  0  0  0  0  0
    7.4752  -30.0899   -9.9144 H   0  0  0  0  0  0  0  0  0  0  0  0
    4.5105  -23.1271   -9.9083 H   0  0  0  0  0  0  0  0  0  0  0  0
    8.7512  -23.0214  -10.6592 H   0  0  0  0  0  0  0  0  0  0  0  0
    9.4233  -28.3842   -9.3682 H   0  0  0  0  0  0  0  0  0  0  0  0
   11.7361  -26.8694   -9.7265 H   0  0  0  0  0  0  0  0  0  0  0  0
    6.8974  -27.4443   -7.2739 H   0  0  0  0  0  0  0  0  0  0  0  0
    8.1796  -28.5882   -7.6727 H   0  0  0  0  0  0  0  0  0  0  0  0
    5.4525  -24.7577  -11.2991 H   0  0  0  0  0  0  0  0  0  0  0  0
    6.8101  -24.2000  -12.2778 H   0  0  0  0  0  0  0  0  0  0  0  0
   11.4280  -27.8228  -13.1000 H   0  0  0  0  0  0  0  0  0  0  0  0
   16.1337  -27.7319  -10.5384 H   0  0  0  0  0  0  0  0  0  0  0  0
  1  3  1  0  0  0  0
  1  4  2  0  0  0  0
  2  5  1  0  0  0  0
  2  6  2  0  0  0  0
  3  7  2  0  0  0  0
  4  8  1  0  0  0  0
  5  9  2  0  0  0  0
  6 10  1  0  0  0  0
  7 11  1  0  0  0  0
  8 11  2  0  0  0  0
  9 12  1  0  0  0  0
 10 12  2  0  0  0  0
 11 21  1  0  0  0  0
 12 22  1  0  0  0  0
 13 14  2  0  0  0  0
 13 23  1  0  0  0  0
 14 15  1  0  0  0  0
 14 18  1  0  0  0  0
 15 24  1  0  0  0  0
 15 25  2  0  0  0  0
 16 23  1  0  0  0  0
 16 24  1  0  0  0  0
 16 26  2  0  0  0  0
 17 18  2  0  0  0  0
 17 19  1  0  0  0  0
 18 29  1  0  0  0  0
 19 20  1  0  0  0  0
 19 27  2  0  0  0  0
 20 28  2  0  0  0  0
 20 30  1  0  0  0  0
 21 23  1  0  0  0  0
 22 24  1  0  0  0  0
  1 31  1  0  0  0  0
  2 32  1  0  0  0  0
  3 33  1  0  0  0  0
  4 34  1  0  0  0  0
  5 35  1  0  0  0  0
  6 36  1  0  0  0  0
  7 37  1  0  0  0  0
  8 38  1  0  0  0  0
  9 39  1  0  0  0  0
 10 40  1  0  0  0  0
 13 41  1  0  0  0  0
 17 42  1  0  0  0  0
 21 43  1  0  0  0  0
 21 44  1  0  0  0  0
 22 45  1  0  0  0  0
 22 46  1  0  0  0  0
 29 47  1  0  0  0  0
 30 48  1  0  0  0  0
M  END
> <Hybrid2>
-6.043015003204346

> <Hybrid2>
-5.396589

$$$$
CHEMBL216389
  -OEChem-02152218483D

 50 52  0     1  0  0  0  0  0999 V2000
   12.3593  -25.5648  -12.6847 C   0  0  0  0  0  0  0  0  0  0  0  0
   12.8286  -27.6461  -11.5512 C   0  0  0  0  0  0  0  0  0  0  0  0
   13.6458  -25.1139  -12.3897 C   0  0  0  0  0  0  0  0  0  0  0  0
   14.1153  -27.1953  -11.2562 C   0  0  0  0  0  0  0  0  0  0  0  0
   11.9506  -26.8309  -12.2654 C   0  0  0  0  0  0  0  0  0  0  0  0
   14.5238  -25.9291  -11.6754 C   0  0  0  0  0  0  0  0  0  0  0  0
    7.7259  -24.4363   -9.9307 C   0  0  0  0  0  0  0  0  0  0  0  0
    8.0014  -25.6619  -10.3984 C   0  0  0  0  0  0  0  0  0  0  0  0
    6.8139  -24.3235   -8.7595 C   0  0  0  0  0  0  0  0  0  0  0  0
    6.7167  -26.7450   -8.8690 C   0  0  0  0  0  0  0  0  0  0  0  0
    8.9009  -25.7871  -11.5543 C   0  0  0  0  0  0  0  0  0  0  0  0
    4.2653  -29.6526   -8.6091 C   0  0  0  0  0  0  0  0  0  0  0  0
    5.3069  -30.7393   -8.8334 C   0  0  0  0  0  0  0  0  0  0  0  0
    4.8351  -28.2961   -8.9995 C   0  0  0  0  0  0  0  0  0  0  0  0
    6.6131  -30.4022   -8.1161 C   0  0  0  0  0  0  0  0  0  0  0  0
    6.1715  -28.0194   -8.2974 C   0  0  1  0  0  0  0  0  0  0  0  0
    5.4372  -25.5235   -7.1221 C   0  0  0  0  0  0  0  0  0  0  0  0
    8.4147  -28.8526   -7.8238 C   0  0  0  0  0  0  0  0  0  0  0  0
   10.5662  -27.3171  -12.5833 C   0  0  0  0  0  0  0  0  0  0  0  0
    7.5129  -26.8335   -9.8894 N   0  0  0  0  0  0  0  0  0  0  0  0
    6.3383  -25.5448   -8.2729 N   0  0  0  0  0  0  0  0  0  0  0  0
    7.1521  -29.0951   -8.5333 N   0  0  1  0  0  0  0  0  0  0  0  0
    9.6194  -26.9679  -11.5486 N   0  0  0  0  0  0  0  0  0  0  0  0
    6.5434  -23.2130   -8.3070 O   0  0  0  0  0  0  0  0  0  0  0  0
    8.9608  -24.9016  -12.4037 O   0  0  0  0  0  0  0  0  0  0  0  0
    8.2391  -23.2792  -10.4723 O   0  0  0  0  0  0  0  0  0  0  0  0
   15.7603  -25.4974  -11.3944 F   0  0  0  0  0  0  0  0  0  0  0  0
   11.6820  -24.9221  -13.2411 H   0  0  0  0  0  0  0  0  0  0  0  0
   12.5191  -28.6341  -11.2207 H   0  0  0  0  0  0  0  0  0  0  0  0
   13.9643  -24.1286  -12.7166 H   0  0  0  0  0  0  0  0  0  0  0  0
   14.7989  -27.8295  -10.6998 H   0  0  0  0  0  0  0  0  0  0  0  0
    3.3652  -29.8664   -9.1959 H   0  0  0  0  0  0  0  0  0  0  0  0
    3.9675  -29.6376   -7.5536 H   0  0  0  0  0  0  0  0  0  0  0  0
    4.9229  -31.6996   -8.4709 H   0  0  0  0  0  0  0  0  0  0  0  0
    5.4947  -30.8545   -9.9084 H   0  0  0  0  0  0  0  0  0  0  0  0
    4.9632  -28.2611  -10.0903 H   0  0  0  0  0  0  0  0  0  0  0  0
    4.1120  -27.5092   -8.7514 H   0  0  0  0  0  0  0  0  0  0  0  0
    6.4472  -30.4234   -7.0306 H   0  0  0  0  0  0  0  0  0  0  0  0
    7.3391  -31.1910   -8.3489 H   0  0  0  0  0  0  0  0  0  0  0  0
    6.0014  -27.8717   -7.2233 H   0  0  0  0  0  0  0  0  0  0  0  0
    4.3965  -25.4556   -7.4718 H   0  0  0  0  0  0  0  0  0  0  0  0
    5.5679  -26.4459   -6.5372 H   0  0  0  0  0  0  0  0  0  0  0  0
    5.6694  -24.6531   -6.4908 H   0  0  0  0  0  0  0  0  0  0  0  0
    8.8258  -27.8788   -8.1282 H   0  0  0  0  0  0  0  0  0  0  0  0
    8.2311  -28.8502   -6.7392 H   0  0  0  0  0  0  0  0  0  0  0  0
    9.1333  -29.6476   -8.0722 H   0  0  0  0  0  0  0  0  0  0  0  0
   10.2116  -26.8840  -13.5250 H   0  0  0  0  0  0  0  0  0  0  0  0
   10.5490  -28.4059  -12.6993 H   0  0  0  0  0  0  0  0  0  0  0  0
    9.4755  -27.6197  -10.7827 H   0  0  0  0  0  0  0  0  0  0  0  0
    7.9134  -22.5143   -9.9850 H   0  0  0  0  0  0  0  0  0  0  0  0
  1  3  2  0  0  0  0
  1  5  1  0  0  0  0
  2  4  1  0  0  0  0
  2  5  2  0  0  0  0
  3  6  1  0  0  0  0
  4  6  2  0  0  0  0
  5 19  1  0  0  0  0
  6 27  1  0  0  0  0
  7  8  2  0  0  0  0
  7  9  1  0  0  0  0
  7 26  1  0  0  0  0
  8 11  1  0  0  0  0
  8 20  1  0  0  0  0
  9 21  1  0  0  0  0
  9 24  2  0  0  0  0
 10 16  1  0  0  0  0
 10 20  2  0  0  0  0
 10 21  1  0  0  0  0
 11 23  1  0  0  0  0
 11 25  2  0  0  0  0
 12 13  1  0  0  0  0
 12 14  1  0  0  0  0
 13 15  1  0  0  0  0
 14 16  1  0  0  0  0
 15 22  1  0  0  0  0
 16 22  1  0  0  0  0
 17 21  1  0  0  0  0
 18 22  1  0  0  0  0
 19 23  1  0  0  0  0
  1 28  1  0  0  0  0
  2 29  1  0  0  0  0
  3 30  1  0  0  0  0
  4 31  1  0  0  0  0
 12 32  1  0  0  0  0
 12 33  1  0  0  0  0
 13 34  1  0  0  0  0
 13 35  1  0  0  0  0
 14 36  1  0  0  0  0
 14 37  1  0  0  0  0
 15 38  1  0  0  0  0
 15 39  1  0  0  0  0
 16 40  1  0  0  0  0
 17 41  1  0  0  0  0
 17 42  1  0  0  0  0
 17 43  1  0  0  0  0
 18 44  1  0  0  0  0
 18 45  1  0  0  0  0
 18 46  1  0  0  0  0
 19 47  1  0  0  0  0
 19 48  1  0  0  0  0
 23 49  1  0  0  0  0
 26 50  1  0  0  0  0
M  END
> <Hybrid2>
-1.80817711353302

> <Hybrid2>
-1.808177

$$$$
CHEMBL216389
  -OEChem-02152218483D

 50 52  0     1  0  0  0  0  0999 V2000
   13.9767  -26.0384  -12.2102 C   0  0  0  0  0  0  0  0  0  0  0  0
   13.3996  -28.2214  -11.3508 C   0  0  0  0  0  0  0  0  0  0  0  0
   15.2730  -26.1870  -11.7173 C   0  0  0  0  0  0  0  0  0  0  0  0
   14.6960  -28.3701  -10.8579 C   0  0  0  0  0  0  0  0  0  0  0  0
   13.0399  -27.0556  -12.0269 C   0  0  0  0  0  0  0  0  0  0  0  0
   15.6327  -27.3528  -11.0412 C   0  0  0  0  0  0  0  0  0  0  0  0
    9.7996  -23.3543   -9.8282 C   0  0  0  0  0  0  0  0  0  0  0  0
    9.6370  -24.5365  -10.4386 C   0  0  0  0  0  0  0  0  0  0  0  0
    8.8356  -22.9821   -8.7567 C   0  0  0  0  0  0  0  0  0  0  0  0
    7.8060  -25.1271   -9.2296 C   0  0  0  0  0  0  0  0  0  0  0  0
   10.5824  -24.9162  -11.4983 C   0  0  0  0  0  0  0  0  0  0  0  0
    4.3959  -26.7755   -9.6606 C   0  0  0  0  0  0  0  0  0  0  0  0
    4.9433  -28.1698   -9.9300 C   0  0  0  0  0  0  0  0  0  0  0  0
    5.5099  -25.7454   -9.7853 C   0  0  0  0  0  0  0  0  0  0  0  0
    6.1462  -28.4678   -9.0365 C   0  0  0  0  0  0  0  0  0  0  0  0
    6.7185  -26.1093   -8.9122 C   0  0  1  0  0  0  0  0  0  0  0  0
    6.8582  -23.6506   -7.4684 C   0  0  0  0  0  0  0  0  0  0  0  0
    8.3441  -27.8326   -8.3305 C   0  0  0  0  0  0  0  0  0  0  0  0
   11.6446  -26.8966  -12.5578 C   0  0  0  0  0  0  0  0  0  0  0  0
    8.6513  -25.4432  -10.1617 N   0  0  0  0  0  0  0  0  0  0  0  0
    7.8455  -23.9371   -8.5077 N   0  0  0  0  0  0  0  0  0  0  0  0
    7.2168  -27.4674   -9.1979 N   0  0  1  0  0  0  0  0  0  0  0  0
   10.7640  -26.2834  -11.5895 N   0  0  0  0  0  0  0  0  0  0  0  0
    8.9597  -21.9049   -8.1775 O   0  0  0  0  0  0  0  0  0  0  0  0
   11.1203  -24.0613  -12.1974 O   0  0  0  0  0  0  0  0  0  0  0  0
   10.8070  -22.4679  -10.1367 O   0  0  0  0  0  0  0  0  0  0  0  0
   16.8784  -27.4968  -10.5702 F   0  0  0  0  0  0  0  0  0  0  0  0
   13.7055  -25.1261  -12.7351 H   0  0  0  0  0  0  0  0  0  0  0  0
   12.6766  -29.0194  -11.2034 H   0  0  0  0  0  0  0  0  0  0  0  0
   16.0025  -25.3956  -11.8606 H   0  0  0  0  0  0  0  0  0  0  0  0
   14.9763  -29.2773  -10.3311 H   0  0  0  0  0  0  0  0  0  0  0  0
    3.5889  -26.5449  -10.3646 H   0  0  0  0  0  0  0  0  0  0  0  0
    3.9671  -26.7347   -8.6520 H   0  0  0  0  0  0  0  0  0  0  0  0
    4.1588  -28.9147   -9.7550 H   0  0  0  0  0  0  0  0  0  0  0  0
    5.2360  -28.2542  -10.9842 H   0  0  0  0  0  0  0  0  0  0  0  0
    5.8106  -25.6676  -10.8392 H   0  0  0  0  0  0  0  0  0  0  0  0
    5.1282  -24.7564   -9.5027 H   0  0  0  0  0  0  0  0  0  0  0  0
    5.8176  -28.5170   -7.9896 H   0  0  0  0  0  0  0  0  0  0  0  0
    6.5272  -29.4612   -9.3039 H   0  0  0  0  0  0  0  0  0  0  0  0
    6.4548  -26.0026   -7.8523 H   0  0  0  0  0  0  0  0  0  0  0  0
    5.9983  -23.1281   -7.9128 H   0  0  0  0  0  0  0  0  0  0  0  0
    6.5196  -24.5936   -7.0145 H   0  0  0  0  0  0  0  0  0  0  0  0
    7.3140  -23.0145   -6.6953 H   0  0  0  0  0  0  0  0  0  0  0  0
    9.1493  -27.0918   -8.4434 H   0  0  0  0  0  0  0  0  0  0  0  0
    8.0089  -27.8529   -7.2830 H   0  0  0  0  0  0  0  0  0  0  0  0
    8.7183  -28.8271   -8.6151 H   0  0  0  0  0  0  0  0  0  0  0  0
   11.6428  -26.2725  -13.4581 H   0  0  0  0  0  0  0  0  0  0  0  0
   11.2161  -27.8660  -12.8333 H   0  0  0  0  0  0  0  0  0  0  0  0
   10.2558  -26.8843  -10.9471 H   0  0  0  0  0  0  0  0  0  0  0  0
   10.7388  -21.6845   -9.5799 H   0  0  0  0  0  0  0  0  0  0  0  0
  1  3  2  0  0  0  0
  1  5  1  0  0  0  0
  2  4  1  0  0  0  0
  2  5  2  0  0  0  0
  3  6  1  0  0  0  0
  4  6  2  0  0  0  0
  5 19  1  0  0  0  0
  6 27  1  0  0  0  0
  7  8  2  0  0  0  0
  7  9  1  0  0  0  0
  7 26  1  0  0  0  0
  8 11  1  0  0  0  0
  8 20  1  0  0  0  0
  9 21  1  0  0  0  0
  9 24  2  0  0  0  0
 10 16  1  0  0  0  0
 10 20  2  0  0  0  0
 10 21  1  0  0  0  0
 11 23  1  0  0  0  0
 11 25  2  0  0  0  0
 12 13  1  0  0  0  0
 12 14  1  0  0  0  0
 13 15  1  0  0  0  0
 14 16  1  0  0  0  0
 15 22  1  0  0  0  0
 16 22  1  0  0  0  0
 17 21  1  0  0  0  0
 18 22  1  0  0  0  0
 19 23  1  0  0  0  0
  1 28  1  0  0  0  0
  2 29  1  0  0  0  0
  3 30  1  0  0  0  0
  4 31  1  0  0  0  0
 12 32  1  0  0  0  0
 12 33  1  0  0  0  0
 13 34  1  0  0  0  0
 13 35  1  0  0  0  0
 14 36  1  0  0  0  0
 14 37  1  0  0  0  0
 15 38  1  0  0  0  0
 15 39  1  0  0  0  0
 16 40  1  0  0  0  0
 17 41  1  0  0  0  0
 17 42  1  0  0  0  0
 17 43  1  0  0  0  0
 18 44  1  0  0  0  0
 18 45  1  0  0  0  0
 18 46  1  0  0  0  0
 19 47  1  0  0  0  0
 19 48  1  0  0  0  0
 23 49  1  0  0  0  0
 26 50  1  0  0  0  0
M  END
> <Hybrid2>
-1.80817711353302

> <Hybrid2>
-1.095242

$$$$
CHEMBL209488
  -OEChem-02152218483D

 39 42  0     0  0  0  0  0  0999 V2000
   12.7176  -26.8128  -10.5212 C   0  0  0  0  0  0  0  0  0  0  0  0
   11.7405  -26.2655  -12.6620 C   0  0  0  0  0  0  0  0  0  0  0  0
   13.6558  -27.6257  -11.1572 C   0  0  0  0  0  0  0  0  0  0  0  0
   12.6788  -27.0784  -13.2980 C   0  0  0  0  0  0  0  0  0  0  0  0
    3.5344  -28.9542   -8.6191 C   0  0  0  0  0  0  0  0  0  0  0  0
    4.2901  -30.0812   -8.4322 C   0  0  0  0  0  0  0  0  0  0  0  0
    7.3926  -26.5643   -9.7790 C   0  0  0  0  0  0  0  0  0  0  0  0
    8.1714  -27.6973   -9.5944 C   0  0  0  0  0  0  0  0  0  0  0  0
   11.7598  -26.1328  -11.2736 C   0  0  0  0  0  0  0  0  0  0  0  0
    5.4156  -27.7584   -9.1924 C   0  0  0  0  0  0  0  0  0  0  0  0
    6.1990  -28.9260   -8.9993 C   0  0  0  0  0  0  0  0  0  0  0  0
    6.0266  -26.5703   -9.5861 C   0  0  0  0  0  0  0  0  0  0  0  0
    7.5790  -28.8817   -9.2042 C   0  0  0  0  0  0  0  0  0  0  0  0
   13.6365  -27.7584  -12.5456 C   0  0  0  0  0  0  0  0  0  0  0  0
    8.2679  -25.4605  -10.1877 C   0  0  0  0  0  0  0  0  0  0  0  0
    9.6046  -27.4004   -9.8723 C   0  0  0  0  0  0  0  0  0  0  0  0
    8.5388  -30.8386  -10.1556 C   0  0  0  0  0  0  0  0  0  0  0  0
   10.7501  -25.2571  -10.5897 C   0  0  0  0  0  0  0  0  0  0  0  0
    4.0869  -27.7879   -8.9989 N   0  0  0  0  0  0  0  0  0  0  0  0
    5.6223  -30.0780   -8.6195 N   0  0  0  0  0  0  0  0  0  0  0  0
    9.5538  -25.9880  -10.2314 N   0  0  0  0  0  0  0  0  0  0  0  0
    7.8864  -24.3297  -10.4278 O   0  0  0  0  0  0  0  0  0  0  0  0
    5.2918  -25.4414   -9.7766 O   0  0  0  0  0  0  0  0  0  0  0  0
    8.3451  -29.9936   -9.0231 O   0  0  0  0  0  0  0  0  0  0  0  0
   14.5392  -28.5368  -13.1567 F   0  0  0  0  0  0  0  0  0  0  0  0
   12.7401  -26.7163   -9.4389 H   0  0  0  0  0  0  0  0  0  0  0  0
   10.9982  -25.7393  -13.2564 H   0  0  0  0  0  0  0  0  0  0  0  0
   14.4018  -28.1546  -10.5717 H   0  0  0  0  0  0  0  0  0  0  0  0
   12.6638  -27.1823  -14.3788 H   0  0  0  0  0  0  0  0  0  0  0  0
    2.4619  -28.9489   -8.4705 H   0  0  0  0  0  0  0  0  0  0  0  0
    3.8529  -31.0233   -8.1261 H   0  0  0  0  0  0  0  0  0  0  0  0
   10.2307  -27.5239   -8.9844 H   0  0  0  0  0  0  0  0  0  0  0  0
    9.9869  -27.9740  -10.7211 H   0  0  0  0  0  0  0  0  0  0  0  0
    9.1672  -31.6873   -9.8747 H   0  0  0  0  0  0  0  0  0  0  0  0
    9.0140  -30.2697  -10.9587 H   0  0  0  0  0  0  0  0  0  0  0  0
    7.5673  -31.2045  -10.4964 H   0  0  0  0  0  0  0  0  0  0  0  0
   11.1695  -24.8269   -9.6737 H   0  0  0  0  0  0  0  0  0  0  0  0
   10.4525  -24.4232  -11.2341 H   0  0  0  0  0  0  0  0  0  0  0  0
    5.8661  -24.7073  -10.0479 H   0  0  0  0  0  0  0  0  0  0  0  0
  1  3  2  0  0  0  0
  1  9  1  0  0  0  0
  2  4  1  0  0  0  0
  2  9  2  0  0  0  0
  3 14  1  0  0  0  0
  4 14  2  0  0  0  0
  5  6  1  0  0  0  0
  5 19  2  0  0  0  0
  6 20  2  0  0  0  0
  7  8  2  0  0  0  0
  7 12  1  0  0  0  0
  7 15  1  0  0  0  0
  8 13  1  0  0  0  0
  8 16  1  0  0  0  0
  9 18  1  0  0  0  0
 10 11  1  0  0  0  0
 10 12  2  0  0  0  0
 10 19  1  0  0  0  0
 11 13  2  0  0  0  0
 11 20  1  0  0  0  0
 12 23  1  0  0  0  0
 13 24  1  0  0  0  0
 14 25  1  0  0  0  0
 15 21  1  0  0  0  0
 15 22  2  0  0  0  0
 16 21  1  0  0  0  0
 17 24  1  0  0  0  0
 18 21  1  0  0  0  0
  1 26  1  0  0  0  0
  2 27  1  0  0  0  0
  3 28  1  0  0  0  0
  4 29  1  0  0  0  0
  5 30  1  0  0  0  0
  6 31  1  0  0  0  0
 16 32  1  0  0  0  0
 16 33  1  0  0  0  0
 17 34  1  0  0  0  0
 17 35  1  0  0  0  0
 17 36  1  0  0  0  0
 18 37  1  0  0  0  0
 18 38  1  0  0  0  0
 23 39  1  0  0  0  0
M  END
> <Hybrid2>
-4.494556903839111

> <Hybrid2>
-4.494557

$$$$
CHEMBL209488
  -OEChem-02152218483D

 39 42  0     0  0  0  0  0  0999 V2000
   12.4905  -25.9582   -9.8591 C   0  0  0  0  0  0  0  0  0  0  0  0
   12.2701  -27.0795  -11.9878 C   0  0  0  0  0  0  0  0  0  0  0  0
   13.7624  -26.5084   -9.7009 C   0  0  0  0  0  0  0  0  0  0  0  0
   13.5421  -27.6297  -11.8296 C   0  0  0  0  0  0  0  0  0  0  0  0
    4.0912  -30.0489   -7.8898 C   0  0  0  0  0  0  0  0  0  0  0  0
    4.8807  -31.1434   -8.1240 C   0  0  0  0  0  0  0  0  0  0  0  0
    7.4159  -27.2734   -9.6746 C   0  0  0  0  0  0  0  0  0  0  0  0
    8.2269  -28.3720   -9.9187 C   0  0  0  0  0  0  0  0  0  0  0  0
   11.7443  -26.2438  -11.0026 C   0  0  0  0  0  0  0  0  0  0  0  0
    5.7096  -28.6643   -8.7622 C   0  0  0  0  0  0  0  0  0  0  0  0
    6.5279  -29.7981   -9.0054 C   0  0  0  0  0  0  0  0  0  0  0  0
    6.1659  -27.3933   -9.1031 C   0  0  0  0  0  0  0  0  0  0  0  0
    7.7873  -29.6376   -9.5856 C   0  0  0  0  0  0  0  0  0  0  0  0
   14.2882  -27.3442  -10.6862 C   0  0  0  0  0  0  0  0  0  0  0  0
    8.1214  -26.0670  -10.1200 C   0  0  0  0  0  0  0  0  0  0  0  0
    9.5130  -27.9477  -10.5394 C   0  0  0  0  0  0  0  0  0  0  0  0
    9.4803  -31.1038   -8.7856 C   0  0  0  0  0  0  0  0  0  0  0  0
   10.3755  -25.6512  -11.1738 C   0  0  0  0  0  0  0  0  0  0  0  0
    4.4958  -28.8052   -8.2048 N   0  0  0  0  0  0  0  0  0  0  0  0
    6.0999  -31.0291   -8.6811 N   0  0  0  0  0  0  0  0  0  0  0  0
    9.3441  -26.5016  -10.6199 N   0  0  0  0  0  0  0  0  0  0  0  0
    7.6741  -24.9375  -10.0423 O   0  0  0  0  0  0  0  0  0  0  0  0
    5.3953  -26.2951   -8.8780 O   0  0  0  0  0  0  0  0  0  0  0  0
    8.5849  -30.7156   -9.8257 O   0  0  0  0  0  0  0  0  0  0  0  0
   15.5108  -27.8705  -10.5356 F   0  0  0  0  0  0  0  0  0  0  0  0
   12.0890  -25.3087   -9.0857 H   0  0  0  0  0  0  0  0  0  0  0  0
   11.6962  -27.3074  -12.8822 H   0  0  0  0  0  0  0  0  0  0  0  0
   14.3437  -26.2857   -8.8112 H   0  0  0  0  0  0  0  0  0  0  0  0
   13.9516  -28.2808  -12.5962 H   0  0  0  0  0  0  0  0  0  0  0  0
    3.1089  -30.1327   -7.4421 H   0  0  0  0  0  0  0  0  0  0  0  0
    4.5624  -32.1473   -7.8728 H   0  0  0  0  0  0  0  0  0  0  0  0
   10.3726  -28.1750   -9.9028 H   0  0  0  0  0  0  0  0  0  0  0  0
    9.6369  -28.3523  -11.5477 H   0  0  0  0  0  0  0  0  0  0  0  0
   10.0566  -31.9751   -9.1063 H   0  0  0  0  0  0  0  0  0  0  0  0
    8.9110  -31.3420   -7.8836 H   0  0  0  0  0  0  0  0  0  0  0  0
   10.1618  -30.2760   -8.5759 H   0  0  0  0  0  0  0  0  0  0  0  0
   10.3118  -24.6767  -10.6775 H   0  0  0  0  0  0  0  0  0  0  0  0
   10.1457  -25.4925  -12.2327 H   0  0  0  0  0  0  0  0  0  0  0  0
    5.8573  -25.4933   -9.1715 H   0  0  0  0  0  0  0  0  0  0  0  0
  1  3  2  0  0  0  0
  1  9  1  0  0  0  0
  2  4  1  0  0  0  0
  2  9  2  0  0  0  0
  3 14  1  0  0  0  0
  4 14  2  0  0  0  0
  5  6  1  0  0  0  0
  5 19  2  0  0  0  0
  6 20  2  0  0  0  0
  7  8  2  0  0  0  0
  7 12  1  0  0  0  0
  7 15  1  0  0  0  0
  8 13  1  0  0  0  0
  8 16  1  0  0  0  0
  9 18  1  0  0  0  0
 10 11  1  0  0  0  0
 10 12  2  0  0  0  0
 10 19  1  0  0  0  0
 11 13  2  0  0  0  0
 11 20  1  0  0  0  0
 12 23  1  0  0  0  0
 13 24  1  0  0  0  0
 14 25  1  0  0  0  0
 15 21  1  0  0  0  0
 15 22  2  0  0  0  0
 16 21  1  0  0  0  0
 17 24  1  0  0  0  0
 18 21  1  0  0  0  0
  1 26  1  0  0  0  0
  2 27  1  0  0  0  0
  3 28  1  0  0  0  0
  4 29  1  0  0  0  0
  5 30  1  0  0  0  0
  6 31  1  0  0  0  0
 16 32  1  0  0  0  0
 16 33  1  0  0  0  0
 17 34  1  0  0  0  0
 17 35  1  0  0  0  0
 17 36  1  0  0  0  0
 18 37  1  0  0  0  0
 18 38  1  0  0  0  0
 23 39  1  0  0  0  0
M  END
> <Hybrid2>
-4.494556903839111

> <Hybrid2>
-4.362545

$$$$
CHEMBL1159990
  -OEChem-02152218483D

 50 51  0     1  0  0  0  0  0999 V2000
   12.5682  -25.7218  -12.2651 C   0  0  0  0  0  0  0  0  0  0  0  0
    6.8223  -28.8526   -7.8997 C   0  0  0  0  0  0  0  0  0  0  0  0
   13.9624  -25.7167  -12.3052 C   0  0  0  0  0  0  0  0  0  0  0  0
    5.6767  -29.3844   -7.3078 C   0  0  0  0  0  0  0  0  0  0  0  0
   12.6116  -27.7893  -11.0158 C   0  0  0  0  0  0  0  0  0  0  0  0
    5.8066  -29.0899  -10.0789 C   0  0  0  0  0  0  0  0  0  0  0  0
   11.8928  -26.7580  -11.6203 C   0  0  0  0  0  0  0  0  0  0  0  0
    6.8873  -28.7053   -9.2853 C   0  0  0  0  0  0  0  0  0  0  0  0
   14.6813  -26.7479  -11.7007 C   0  0  0  0  0  0  0  0  0  0  0  0
    4.5960  -29.7690   -8.1015 C   0  0  0  0  0  0  0  0  0  0  0  0
   14.0059  -27.7842  -11.0560 C   0  0  0  0  0  0  0  0  0  0  0  0
    4.6610  -29.6218   -9.4870 C   0  0  0  0  0  0  0  0  0  0  0  0
   10.5284  -26.3662   -9.0959 C   0  0  0  0  0  0  0  0  0  0  0  0
    7.3483  -26.2288  -11.3872 C   0  0  0  0  0  0  0  0  0  0  0  0
    9.7124  -24.5061  -10.6148 C   0  0  0  0  0  0  0  0  0  0  0  0
    7.5692  -25.9025   -8.8536 C   0  0  0  0  0  0  0  0  0  0  0  0
   10.3770  -26.7623  -11.5744 C   0  0  0  0  0  0  0  0  0  0  0  0
    8.1325  -28.1243   -9.9291 C   0  0  0  0  0  0  0  0  0  0  0  0
    9.6953  -26.0389  -10.3558 C   0  0  1  0  0  0  0  0  0  0  0  0
    8.1822  -26.5585  -10.1213 C   0  0  1  0  0  0  0  0  0  0  0  0
   10.6998  -27.4903   -8.6411 O   0  0  0  0  0  0  0  0  0  0  0  0
    7.6314  -26.6330  -12.5111 O   0  0  0  0  0  0  0  0  0  0  0  0
   16.0428  -26.7313  -11.7471 O   0  0  0  0  0  0  0  0  0  0  0  0
    3.4829  -30.2872   -7.5111 O   0  0  0  0  0  0  0  0  0  0  0  0
   14.6971  -28.7972  -10.4628 O   0  0  0  0  0  0  0  0  0  0  0  0
    3.6123  -29.9945  -10.2726 O   0  0  0  0  0  0  0  0  0  0  0  0
   11.0340  -25.2610   -8.4935 O   0  0  0  0  0  0  0  0  0  0  0  0
    6.2909  -25.4033  -11.1957 O   0  0  0  0  0  0  0  0  0  0  0  0
   12.0164  -24.9134  -12.7373 H   0  0  0  0  0  0  0  0  0  0  0  0
    7.6587  -28.5542   -7.2734 H   0  0  0  0  0  0  0  0  0  0  0  0
   14.4821  -24.9066  -12.8095 H   0  0  0  0  0  0  0  0  0  0  0  0
    5.6330  -29.4968   -6.2280 H   0  0  0  0  0  0  0  0  0  0  0  0
   12.0876  -28.5980  -10.5121 H   0  0  0  0  0  0  0  0  0  0  0  0
    5.8544  -28.9756  -11.1592 H   0  0  0  0  0  0  0  0  0  0  0  0
    9.1295  -24.2380  -11.5036 H   0  0  0  0  0  0  0  0  0  0  0  0
   10.7229  -24.1251  -10.7905 H   0  0  0  0  0  0  0  0  0  0  0  0
    9.2937  -23.9497   -9.7696 H   0  0  0  0  0  0  0  0  0  0  0  0
    8.1562  -26.1337   -7.9579 H   0  0  0  0  0  0  0  0  0  0  0  0
    7.5229  -24.8118   -8.9226 H   0  0  0  0  0  0  0  0  0  0  0  0
    6.5437  -26.2470   -8.6766 H   0  0  0  0  0  0  0  0  0  0  0  0
   10.0616  -27.8130  -11.6190 H   0  0  0  0  0  0  0  0  0  0  0  0
   10.0227  -26.3195  -12.5126 H   0  0  0  0  0  0  0  0  0  0  0  0
    8.9878  -28.4501   -9.3259 H   0  0  0  0  0  0  0  0  0  0  0  0
    8.2595  -28.6332  -10.8936 H   0  0  0  0  0  0  0  0  0  0  0  0
   16.3521  -25.9483  -12.2289 H   0  0  0  0  0  0  0  0  0  0  0  0
    3.5994  -30.3218   -6.5487 H   0  0  0  0  0  0  0  0  0  0  0  0
   14.0829  -29.4327  -10.0627 H   0  0  0  0  0  0  0  0  0  0  0  0
    3.8171  -29.8283  -11.2061 H   0  0  0  0  0  0  0  0  0  0  0  0
   11.5331  -25.4843   -7.6792 H   0  0  0  0  0  0  0  0  0  0  0  0
    5.7640  -25.1417  -11.9763 H   0  0  0  0  0  0  0  0  0  0  0  0
  1  3  2  0  0  0  0
  1  7  1  0  0  0  0
  2  4  2  0  0  0  0
  2  8  1  0  0  0  0
  3  9  1  0  0  0  0
  4 10  1  0  0  0  0
  5  7  2  0  0  0  0
  5 11  1  0  0  0  0
  6  8  2  0  0  0  0
  6 12  1  0  0  0  0
  7 17  1  0  0  0  0
  8 18  1  0  0  0  0
  9 11  2  0  0  0  0
  9 23  1  0  0  0  0
 10 12  2  0  0  0  0
 10 24  1  0  0  0  0
 11 25  1  0  0  0  0
 12 26  1  0  0  0  0
 13 19  1  0  0  0  0
 13 21  2  0  0  0  0
 13 27  1  0  0  0  0
 14 20  1  0  0  0  0
 14 22  2  0  0  0  0
 14 28  1  0  0  0  0
 15 19  1  0  0  0  0
 16 20  1  0  0  0  0
 17 19  1  0  0  0  0
 18 20  1  0  0  0  0
 19 20  1  0  0  0  0
  1 29  1  0  0  0  0
  2 30  1  0  0  0  0
  3 31  1  0  0  0  0
  4 32  1  0  0  0  0
  5 33  1  0  0  0  0
  6 34  1  0  0  0  0
 15 35  1  0  0  0  0
 15 36  1  0  0  0  0
 15 37  1  0  0  0  0
 16 38  1  0  0  0  0
 16 39  1  0  0  0  0
 16 40  1  0  0  0  0
 17 41  1  0  0  0  0
 17 42  1  0  0  0  0
 18 43  1  0  0  0  0
 18 44  1  0  0  0  0
 23 45  1  0  0  0  0
 24 46  1  0  0  0  0
 25 47  1  0  0  0  0
 26 48  1  0  0  0  0
 27 49  1  0  0  0  0
 28 50  1  0  0  0  0
M  END
> <Hybrid2>
-4.395775318145752

> <Hybrid2>
-4.395775

$$$$
CHEMBL1159990
  -OEChem-02152218483D

 50 51  0     1  0  0  0  0  0999 V2000
   13.2201  -25.8447  -11.8828 C   0  0  0  0  0  0  0  0  0  0  0  0
    7.2432  -29.2637   -8.0799 C   0  0  0  0  0  0  0  0  0  0  0  0
   14.6144  -25.8399  -11.8440 C   0  0  0  0  0  0  0  0  0  0  0  0
    6.0671  -29.8334   -7.5925 C   0  0  0  0  0  0  0  0  0  0  0  0
   13.1968  -27.9955  -10.7824 C   0  0  0  0  0  0  0  0  0  0  0  0
    6.3522  -29.3440  -10.3241 C   0  0  0  0  0  0  0  0  0  0  0  0
   12.5113  -26.9225  -11.3520 C   0  0  0  0  0  0  0  0  0  0  0  0
    7.3858  -29.0189   -9.4457 C   0  0  0  0  0  0  0  0  0  0  0  0
   15.2999  -26.9129  -11.2744 C   0  0  0  0  0  0  0  0  0  0  0  0
    5.0335  -30.1586   -8.4709 C   0  0  0  0  0  0  0  0  0  0  0  0
   14.5912  -27.9907  -10.7436 C   0  0  0  0  0  0  0  0  0  0  0  0
    5.1760  -29.9139   -9.8367 C   0  0  0  0  0  0  0  0  0  0  0  0
   11.0064  -26.7070   -8.8869 C   0  0  0  0  0  0  0  0  0  0  0  0
    7.9600  -26.4010  -11.3380 C   0  0  0  0  0  0  0  0  0  0  0  0
   10.2739  -24.7425  -10.3139 C   0  0  0  0  0  0  0  0  0  0  0  0
    8.0374  -26.2551   -8.7793 C   0  0  0  0  0  0  0  0  0  0  0  0
   10.9954  -26.9266  -11.3918 C   0  0  0  0  0  0  0  0  0  0  0  0
    8.6643  -28.3966   -9.9758 C   0  0  0  0  0  0  0  0  0  0  0  0
   10.2449  -26.2897  -10.1654 C   0  0  1  0  0  0  0  0  0  0  0  0
    8.7219  -26.8212  -10.0537 C   0  0  1  0  0  0  0  0  0  0  0  0
   11.1539  -27.8609   -8.5038 O   0  0  0  0  0  0  0  0  0  0  0  0
    8.3066  -26.7254  -12.4699 O   0  0  0  0  0  0  0  0  0  0  0  0
   16.6619  -26.8961  -11.2428 O   0  0  0  0  0  0  0  0  0  0  0  0
    3.8898  -30.7148   -7.9822 O   0  0  0  0  0  0  0  0  0  0  0  0
   15.2497  -29.0446  -10.1856 O   0  0  0  0  0  0  0  0  0  0  0  0
    4.1739  -30.2279  -10.7044 O   0  0  0  0  0  0  0  0  0  0  0  0
   11.4753  -25.6484   -8.1804 O   0  0  0  0  0  0  0  0  0  0  0  0
    6.8920  -25.5888  -11.1484 O   0  0  0  0  0  0  0  0  0  0  0  0
   12.6943  -25.0038  -12.3270 H   0  0  0  0  0  0  0  0  0  0  0  0
    8.0426  -29.0121   -7.3880 H   0  0  0  0  0  0  0  0  0  0  0  0
   15.1602  -24.9974  -12.2597 H   0  0  0  0  0  0  0  0  0  0  0  0
    5.9629  -30.0218   -6.5275 H   0  0  0  0  0  0  0  0  0  0  0  0
   12.6467  -28.8366  -10.3674 H   0  0  0  0  0  0  0  0  0  0  0  0
    6.4605  -29.1537  -11.3892 H   0  0  0  0  0  0  0  0  0  0  0  0
    9.7414  -24.4109  -11.2130 H   0  0  0  0  0  0  0  0  0  0  0  0
   11.2920  -24.3522  -10.4052 H   0  0  0  0  0  0  0  0  0  0  0  0
    9.8073  -24.2462   -9.4564 H   0  0  0  0  0  0  0  0  0  0  0  0
    8.5734  -26.5504   -7.8706 H   0  0  0  0  0  0  0  0  0  0  0  0
    7.9931  -25.1622   -8.7734 H   0  0  0  0  0  0  0  0  0  0  0  0
    7.0042  -26.6090   -8.6851 H   0  0  0  0  0  0  0  0  0  0  0  0
   10.6848  -27.9709  -11.5283 H   0  0  0  0  0  0  0  0  0  0  0  0
   10.6937  -26.4179  -12.3148 H   0  0  0  0  0  0  0  0  0  0  0  0
    9.4848  -28.7661   -9.3500 H   0  0  0  0  0  0  0  0  0  0  0  0
    8.8463  -28.8363  -10.9652 H   0  0  0  0  0  0  0  0  0  0  0  0
   16.9964  -26.0816  -11.6500 H   0  0  0  0  0  0  0  0  0  0  0  0
    3.9520  -30.8175   -7.0196 H   0  0  0  0  0  0  0  0  0  0  0  0
   14.6151  -29.7054   -9.8666 H   0  0  0  0  0  0  0  0  0  0  0  0
    4.4306  -29.9965  -11.6108 H   0  0  0  0  0  0  0  0  0  0  0  0
   11.9282  -25.9297   -7.3571 H   0  0  0  0  0  0  0  0  0  0  0  0
    6.4094  -25.2715  -11.9370 H   0  0  0  0  0  0  0  0  0  0  0  0
  1  3  2  0  0  0  0
  1  7  1  0  0  0  0
  2  4  2  0  0  0  0
  2  8  1  0  0  0  0
  3  9  1  0  0  0  0
  4 10  1  0  0  0  0
  5  7  2  0  0  0  0
  5 11  1  0  0  0  0
  6  8  2  0  0  0  0
  6 12  1  0  0  0  0
  7 17  1  0  0  0  0
  8 18  1  0  0  0  0
  9 11  2  0  0  0  0
  9 23  1  0  0  0  0
 10 12  2  0  0  0  0
 10 24  1  0  0  0  0
 11 25  1  0  0  0  0
 12 26  1  0  0  0  0
 13 19  1  0  0  0  0
 13 21  2  0  0  0  0
 13 27  1  0  0  0  0
 14 20  1  0  0  0  0
 14 22  2  0  0  0  0
 14 28  1  0  0  0  0
 15 19  1  0  0  0  0
 16 20  1  0  0  0  0
 17 19  1  0  0  0  0
 18 20  1  0  0  0  0
 19 20  1  0  0  0  0
  1 29  1  0  0  0  0
  2 30  1  0  0  0  0
  3 31  1  0  0  0  0
  4 32  1  0  0  0  0
  5 33  1  0  0  0  0
  6 34  1  0  0  0  0
 15 35  1  0  0  0  0
 15 36  1  0  0  0  0
 15 37  1  0  0  0  0
 16 38  1  0  0  0  0
 16 39  1  0  0  0  0
 16 40  1  0  0  0  0
 17 41  1  0  0  0  0
 17 42  1  0  0  0  0
 18 43  1  0  0  0  0
 18 44  1  0  0  0  0
 23 45  1  0  0  0  0
 24 46  1  0  0  0  0
 25 47  1  0  0  0  0
 26 48  1  0  0  0  0
 27 49  1  0  0  0  0
 28 50  1  0  0  0  0
M  END
> <Hybrid2>
-4.395775318145752

> <Hybrid2>
-3.683982

$$$$
CHEMBL68013
  -OEChem-02152218483D

 61 63  0     1  0  0  0  0  0999 V2000
    7.7008  -23.4558  -14.7437 C   0  0  0  0  0  0  0  0  0  0  0  0
    5.5208  -29.3726   -9.4600 C   0  0  0  0  0  0  0  0  0  0  0  0
    6.5149  -23.4152  -14.0104 C   0  0  0  0  0  0  0  0  0  0  0  0
    4.5625  -28.3732   -9.2911 C   0  0  0  0  0  0  0  0  0  0  0  0
    8.9393  -23.8958  -12.7165 C   0  0  0  0  0  0  0  0  0  0  0  0
    7.2356  -27.8602   -8.6796 C   0  0  0  0  0  0  0  0  0  0  0  0
    8.9130  -23.6962  -14.0968 C   0  0  0  0  0  0  0  0  0  0  0  0
    6.8573  -29.1161   -9.1541 C   0  0  0  0  0  0  0  0  0  0  0  0
    6.5413  -23.6148  -12.6301 C   0  0  0  0  0  0  0  0  0  0  0  0
    4.9407  -27.1173   -8.8166 C   0  0  0  0  0  0  0  0  0  0  0  0
    7.7535  -23.8551  -11.9832 C   0  0  0  0  0  0  0  0  0  0  0  0
    6.2773  -26.8607   -8.5108 C   0  0  0  0  0  0  0  0  0  0  0  0
   10.1652  -23.7418  -14.8721 C   0  0  0  0  0  0  0  0  0  0  0  0
    7.8690  -30.1729   -9.3300 C   0  0  0  0  0  0  0  0  0  0  0  0
   10.9793  -24.8047  -14.9416 C   0  0  0  0  0  0  0  0  0  0  0  0
    8.9328  -30.0811  -10.1407 C   0  0  0  0  0  0  0  0  0  0  0  0
   10.6319  -26.0393  -14.2020 C   0  0  0  0  0  0  0  0  0  0  0  0
    9.1422  -28.8477  -10.9326 C   0  0  0  0  0  0  0  0  0  0  0  0
   14.9107  -27.9957  -10.8421 C   0  0  0  0  0  0  0  0  0  0  0  0
   12.9182  -26.8729   -9.9815 C   0  0  0  0  0  0  0  0  0  0  0  0
   12.8542  -28.0671  -12.2244 C   0  0  0  0  0  0  0  0  0  0  0  0
   11.5372  -26.2623  -10.2588 C   0  0  2  0  0  0  0  0  0  0  0  0
   11.4765  -27.4594  -12.5190 C   0  0  1  0  0  0  0  0  0  0  0  0
   10.7129  -27.1154  -11.2323 C   0  0  1  0  0  0  0  0  0  0  0  0
   13.6802  -27.2098  -11.2643 C   0  0  2  0  0  0  0  0  0  0  0  0
    9.6180  -26.7000  -14.3630 O   0  0  0  0  0  0  0  0  0  0  0  0
    8.3667  -28.3975  -11.7610 O   0  0  0  0  0  0  0  0  0  0  0  0
   16.0659  -27.6583  -11.0543 O   0  0  0  0  0  0  0  0  0  0  0  0
    5.3762  -23.5725  -11.9256 O   0  0  0  0  0  0  0  0  0  0  0  0
    3.9951  -26.1500   -8.6562 O   0  0  0  0  0  0  0  0  0  0  0  0
    7.7911  -24.0505  -10.6355 O   0  0  0  0  0  0  0  0  0  0  0  0
    6.6581  -25.6375   -8.0475 O   0  0  0  0  0  0  0  0  0  0  0  0
   14.5542  -29.1324  -10.1955 O   0  0  0  0  0  0  0  0  0  0  0  0
   11.7042  -24.9448  -10.7739 O   0  0  0  0  0  0  0  0  0  0  0  0
   14.1323  -26.0177  -11.8908 O   0  0  0  0  0  0  0  0  0  0  0  0
   11.6411  -26.2955  -13.3234 O   0  0  0  0  0  0  0  0  0  0  0  0
   10.3423  -28.3207  -10.5658 O   0  0  0  0  0  0  0  0  0  0  0  0
    7.6643  -23.2995  -15.8191 H   0  0  0  0  0  0  0  0  0  0  0  0
    5.2107  -30.3470   -9.8297 H   0  0  0  0  0  0  0  0  0  0  0  0
    5.5740  -23.2272  -14.5205 H   0  0  0  0  0  0  0  0  0  0  0  0
    3.5230  -28.5795   -9.5314 H   0  0  0  0  0  0  0  0  0  0  0  0
    9.8802  -24.0843  -12.2040 H   0  0  0  0  0  0  0  0  0  0  0  0
    8.2756  -27.6517   -8.4381 H   0  0  0  0  0  0  0  0  0  0  0  0
   10.3994  -22.8367  -15.4281 H   0  0  0  0  0  0  0  0  0  0  0  0
    7.7163  -31.0657   -8.7276 H   0  0  0  0  0  0  0  0  0  0  0  0
   11.8999  -24.7988  -15.5148 H   0  0  0  0  0  0  0  0  0  0  0  0
    9.6525  -30.8845  -10.2532 H   0  0  0  0  0  0  0  0  0  0  0  0
   13.5077  -26.1758   -9.3743 H   0  0  0  0  0  0  0  0  0  0  0  0
   12.8058  -27.7586   -9.3470 H   0  0  0  0  0  0  0  0  0  0  0  0
   12.7310  -29.0843  -11.8359 H   0  0  0  0  0  0  0  0  0  0  0  0
   13.4024  -28.2000  -13.1650 H   0  0  0  0  0  0  0  0  0  0  0  0
   10.9859  -26.1577   -9.3018 H   0  0  0  0  0  0  0  0  0  0  0  0
   10.8802  -28.1771  -13.1200 H   0  0  0  0  0  0  0  0  0  0  0  0
    9.7633  -26.5974  -11.4753 H   0  0  0  0  0  0  0  0  0  0  0  0
    4.6307  -23.3965  -12.5209 H   0  0  0  0  0  0  0  0  0  0  0  0
    3.1226  -26.4884   -8.9119 H   0  0  0  0  0  0  0  0  0  0  0  0
    8.7038  -24.2030  -10.3443 H   0  0  0  0  0  0  0  0  0  0  0  0
    7.6143  -25.6236   -7.8849 H   0  0  0  0  0  0  0  0  0  0  0  0
   15.3356  -29.6555   -9.9160 H   0  0  0  0  0  0  0  0  0  0  0  0
   12.1779  -24.4425  -10.0937 H   0  0  0  0  0  0  0  0  0  0  0  0
   14.6566  -25.5398  -11.2296 H   0  0  0  0  0  0  0  0  0  0  0  0
  1  3  2  0  0  0  0
  1  7  1  0  0  0  0
  2  4  2  0  0  0  0
  2  8  1  0  0  0  0
  3  9  1  0  0  0  0
  4 10  1  0  0  0  0
  5  7  2  0  0  0  0
  5 11  1  0  0  0  0
  6  8  2  0  0  0  0
  6 12  1  0  0  0  0
  7 13  1  0  0  0  0
  8 14  1  0  0  0  0
  9 11  2  0  0  0  0
  9 29  1  0  0  0  0
 10 12  2  0  0  0  0
 10 30  1  0  0  0  0
 11 31  1  0  0  0  0
 12 32  1  0  0  0  0
 13 15  2  0  0  0  0
 14 16  2  0  0  0  0
 15 17  1  0  0  0  0
 16 18  1  0  0  0  0
 17 26  2  0  0  0  0
 17 36  1  0  0  0  0
 18 27  2  0  0  0  0
 18 37  1  0  0  0  0
 19 25  1  0  0  0  0
 19 28  2  0  0  0  0
 19 33  1  0  0  0  0
 20 22  1  0  0  0  0
 20 25  1  0  0  0  0
 21 23  1  0  0  0  0
 21 25  1  0  0  0  0
 22 24  1  0  0  0  0
 22 34  1  0  0  0  0
 23 24  1  0  0  0  0
 23 36  1  0  0  0  0
 24 37  1  0  0  0  0
 25 35  1  0  0  0  0
  1 38  1  0  0  0  0
  2 39  1  0  0  0  0
  3 40  1  0  0  0  0
  4 41  1  0  0  0  0
  5 42  1  0  0  0  0
  6 43  1  0  0  0  0
 13 44  1  0  0  0  0
 14 45  1  0  0  0  0
 15 46  1  0  0  0  0
 16 47  1  0  0  0  0
 20 48  1  0  0  0  0
 20 49  1  0  0  0  0
 21 50  1  0  0  0  0
 21 51  1  0  0  0  0
 22 52  1  0  0  0  0
 23 53  1  0  0  0  0
 24 54  1  0  0  0  0
 29 55  1  0  0  0  0
 30 56  1  0  0  0  0
 31 57  1  0  0  0  0
 32 58  1  0  0  0  0
 33 59  1  0  0  0  0
 34 60  1  0  0  0  0
 35 61  1  0  0  0  0
M  END
> <Hybrid2>
-1.4524189233779907

> <Hybrid2>
-1.452419

$$$$
CHEMBL68013
  -OEChem-02152218483D

 61 63  0     1  0  0  0  0  0999 V2000
   13.9425  -26.1965  -13.0541 C   0  0  0  0  0  0  0  0  0  0  0  0
    5.7863  -29.0409   -9.1803 C   0  0  0  0  0  0  0  0  0  0  0  0
   14.5718  -26.4330  -11.8320 C   0  0  0  0  0  0  0  0  0  0  0  0
    6.4092  -30.2612   -9.4416 C   0  0  0  0  0  0  0  0  0  0  0  0
   12.5856  -28.1703  -12.7375 C   0  0  0  0  0  0  0  0  0  0  0  0
    7.9380  -27.9422   -9.1819 C   0  0  0  0  0  0  0  0  0  0  0  0
   12.9493  -27.0651  -13.5068 C   0  0  0  0  0  0  0  0  0  0  0  0
    6.5507  -27.8813   -9.0505 C   0  0  0  0  0  0  0  0  0  0  0  0
   14.2081  -27.5382  -11.0626 C   0  0  0  0  0  0  0  0  0  0  0  0
    7.7965  -30.3221   -9.5730 C   0  0  0  0  0  0  0  0  0  0  0  0
   13.2150  -28.4069  -11.5154 C   0  0  0  0  0  0  0  0  0  0  0  0
    8.5610  -29.1625   -9.4431 C   0  0  0  0  0  0  0  0  0  0  0  0
   12.2828  -26.8134  -14.7967 C   0  0  0  0  0  0  0  0  0  0  0  0
    5.8921  -26.5918   -8.7772 C   0  0  0  0  0  0  0  0  0  0  0  0
   10.9663  -26.6088  -14.9461 C   0  0  0  0  0  0  0  0  0  0  0  0
    5.9629  -25.5166   -9.5749 C   0  0  0  0  0  0  0  0  0  0  0  0
   10.0852  -26.6291  -13.7565 C   0  0  0  0  0  0  0  0  0  0  0  0
    6.7480  -25.5885  -10.8280 C   0  0  0  0  0  0  0  0  0  0  0  0
   11.8767  -23.1506   -9.5003 C   0  0  0  0  0  0  0  0  0  0  0  0
    9.9740  -22.6489  -10.9493 C   0  0  0  0  0  0  0  0  0  0  0  0
   10.7115  -25.0533  -10.5806 C   0  0  0  0  0  0  0  0  0  0  0  0
    9.0223  -23.1041  -12.0647 C   0  0  2  0  0  0  0  0  0  0  0  0
    9.7701  -25.5230  -11.6974 C   0  0  1  0  0  0  0  0  0  0  0  0
    8.5861  -24.5651  -11.8920 C   0  0  1  0  0  0  0  0  0  0  0  0
   11.1562  -23.6011  -10.7605 C   0  0  2  0  0  0  0  0  0  0  0  0
    9.1503  -27.3942  -13.5804 O   0  0  0  0  0  0  0  0  0  0  0  0
    6.5425  -26.3626  -11.7494 O   0  0  0  0  0  0  0  0  0  0  0  0
   13.0418  -22.7851   -9.4506 O   0  0  0  0  0  0  0  0  0  0  0  0
   14.8305  -27.7580   -9.8710 O   0  0  0  0  0  0  0  0  0  0  0  0
    8.3926  -31.5201   -9.8281 O   0  0  0  0  0  0  0  0  0  0  0  0
   12.8525  -29.4899  -10.7726 O   0  0  0  0  0  0  0  0  0  0  0  0
    9.9166  -29.2104   -9.5686 O   0  0  0  0  0  0  0  0  0  0  0  0
   11.0494  -23.2108   -8.4283 O   0  0  0  0  0  0  0  0  0  0  0  0
    9.6604  -22.9233  -13.3254 O   0  0  0  0  0  0  0  0  0  0  0  0
   12.0680  -23.4674  -11.8415 O   0  0  0  0  0  0  0  0  0  0  0  0
   10.5085  -25.6501  -12.9088 O   0  0  0  0  0  0  0  0  0  0  0  0
    7.7241  -24.6425  -10.7583 O   0  0  0  0  0  0  0  0  0  0  0  0
   14.2358  -25.3303  -13.6423 H   0  0  0  0  0  0  0  0  0  0  0  0
    4.7039  -29.0089   -9.0816 H   0  0  0  0  0  0  0  0  0  0  0  0
   15.3448  -25.7526  -11.4852 H   0  0  0  0  0  0  0  0  0  0  0  0
    5.8079  -31.1609   -9.5414 H   0  0  0  0  0  0  0  0  0  0  0  0
   11.8118  -28.8525  -13.0827 H   0  0  0  0  0  0  0  0  0  0  0  0
    8.5417  -27.0427   -9.0826 H   0  0  0  0  0  0  0  0  0  0  0  0
   12.9427  -26.7799  -15.6607 H   0  0  0  0  0  0  0  0  0  0  0  0
    5.3011  -26.5574   -7.8646 H   0  0  0  0  0  0  0  0  0  0  0  0
   10.5081  -26.4367  -15.9139 H   0  0  0  0  0  0  0  0  0  0  0  0
    5.4730  -24.5790   -9.3362 H   0  0  0  0  0  0  0  0  0  0  0  0
   10.3436  -21.6420  -11.1763 H   0  0  0  0  0  0  0  0  0  0  0  0
    9.4131  -22.5290  -10.0163 H   0  0  0  0  0  0  0  0  0  0  0  0
   10.2281  -25.1985   -9.6080 H   0  0  0  0  0  0  0  0  0  0  0  0
   11.5915  -25.7071  -10.5471 H   0  0  0  0  0  0  0  0  0  0  0  0
    8.1267  -22.4495  -12.0695 H   0  0  0  0  0  0  0  0  0  0  0  0
    9.3876  -26.5358  -11.4527 H   0  0  0  0  0  0  0  0  0  0  0  0
    7.9749  -24.8806  -12.7614 H   0  0  0  0  0  0  0  0  0  0  0  0
   15.4907  -27.0668   -9.7052 H   0  0  0  0  0  0  0  0  0  0  0  0
    7.7244  -32.2208   -9.8885 H   0  0  0  0  0  0  0  0  0  0  0  0
   12.1543  -29.9883  -11.2255 H   0  0  0  0  0  0  0  0  0  0  0  0
   10.2956  -28.3252   -9.4510 H   0  0  0  0  0  0  0  0  0  0  0  0
   11.4971  -22.9253   -7.6035 H   0  0  0  0  0  0  0  0  0  0  0  0
    9.8582  -21.9774  -13.3993 H   0  0  0  0  0  0  0  0  0  0  0  0
   12.3136  -22.5301  -11.8816 H   0  0  0  0  0  0  0  0  0  0  0  0
  1  3  2  0  0  0  0
  1  7  1  0  0  0  0
  2  4  2  0  0  0  0
  2  8  1  0  0  0  0
  3  9  1  0  0  0  0
  4 10  1  0  0  0  0
  5  7  2  0  0  0  0
  5 11  1  0  0  0  0
  6  8  2  0  0  0  0
  6 12  1  0  0  0  0
  7 13  1  0  0  0  0
  8 14  1  0  0  0  0
  9 11  2  0  0  0  0
  9 29  1  0  0  0  0
 10 12  2  0  0  0  0
 10 30  1  0  0  0  0
 11 31  1  0  0  0  0
 12 32  1  0  0  0  0
 13 15  2  0  0  0  0
 14 16  2  0  0  0  0
 15 17  1  0  0  0  0
 16 18  1  0  0  0  0
 17 26  2  0  0  0  0
 17 36  1  0  0  0  0
 18 27  2  0  0  0  0
 18 37  1  0  0  0  0
 19 25  1  0  0  0  0
 19 28  2  0  0  0  0
 19 33  1  0  0  0  0
 20 22  1  0  0  0  0
 20 25  1  0  0  0  0
 21 23  1  0  0  0  0
 21 25  1  0  0  0  0
 22 24  1  0  0  0  0
 22 34  1  0  0  0  0
 23 24  1  0  0  0  0
 23 36  1  0  0  0  0
 24 37  1  0  0  0  0
 25 35  1  0  0  0  0
  1 38  1  0  0  0  0
  2 39  1  0  0  0  0
  3 40  1  0  0  0  0
  4 41  1  0  0  0  0
  5 42  1  0  0  0  0
  6 43  1  0  0  0  0
 13 44  1  0  0  0  0
 14 45  1  0  0  0  0
 15 46  1  0  0  0  0
 16 47  1  0  0  0  0
 20 48  1  0  0  0  0
 20 49  1  0  0  0  0
 21 50  1  0  0  0  0
 21 51  1  0  0  0  0
 22 52  1  0  0  0  0
 23 53  1  0  0  0  0
 24 54  1  0  0  0  0
 29 55  1  0  0  0  0
 30 56  1  0  0  0  0
 31 57  1  0  0  0  0
 32 58  1  0  0  0  0
 33 59  1  0  0  0  0
 34 60  1  0  0  0  0
 35 61  1  0  0  0  0
M  END
> <Hybrid2>
-1.4524189233779907

> <Hybrid2>
-0.821043

$$$$
CHEMBL204751
  -OEChem-02152218483D

 63 65  0     0  0  0  0  0  0999 V2000
   10.5057  -25.4512  -10.3634 C   0  0  0  0  0  0  0  0  0  0  0  0
    7.0481  -22.7550   -9.3011 C   0  0  0  0  0  0  0  0  0  0  0  0
    5.2338  -24.3031   -9.6873 C   0  0  0  0  0  0  0  0  0  0  0  0
    9.3561  -25.2709   -9.5873 C   0  0  0  0  0  0  0  0  0  0  0  0
    6.5156  -21.8921  -10.2588 C   0  0  0  0  0  0  0  0  0  0  0  0
    4.7013  -23.4401  -10.6450 C   0  0  0  0  0  0  0  0  0  0  0  0
    9.9542  -27.7757  -10.6575 C   0  0  0  0  0  0  0  0  0  0  0  0
    8.8023  -27.5951   -9.8799 C   0  0  0  0  0  0  0  0  0  0  0  0
   10.8037  -26.7003  -10.8970 C   0  0  0  0  0  0  0  0  0  0  0  0
    6.4072  -23.9606   -9.0153 C   0  0  0  0  0  0  0  0  0  0  0  0
    8.4753  -26.3355   -9.3253 C   0  0  0  0  0  0  0  0  0  0  0  0
    5.3423  -22.2346  -10.9308 C   0  0  0  0  0  0  0  0  0  0  0  0
    6.4933  -27.3009   -8.3390 C   0  0  0  0  0  0  0  0  0  0  0  0
    7.9128  -28.7630   -9.6408 C   0  0  0  0  0  0  0  0  0  0  0  0
    6.7059  -28.5313   -8.8132 C   0  0  0  0  0  0  0  0  0  0  0  0
   12.2131  -26.1919  -12.8521 C   0  0  0  0  0  0  0  0  0  0  0  0
    4.5107  -29.5722   -8.9129 C   0  0  0  0  0  0  0  0  0  0  0  0
   12.0008  -26.8810  -11.7029 C   0  0  0  0  0  0  0  0  0  0  0  0
    5.7988  -29.6165   -8.5393 C   0  0  0  0  0  0  0  0  0  0  0  0
   13.4195  -26.3393  -13.7014 C   0  0  0  0  0  0  0  0  0  0  0  0
    3.5471  -30.6674   -8.6507 C   0  0  0  0  0  0  0  0  0  0  0  0
   13.4642  -25.4872  -14.9317 C   0  0  0  0  0  0  0  0  0  0  0  0
    2.1503  -30.4358   -9.1440 C   0  0  0  0  0  0  0  0  0  0  0  0
   11.1626  -25.6213  -17.7477 C   0  0  0  0  0  0  0  0  0  0  0  0
   -0.5579  -28.8668   -7.2857 C   0  0  0  0  0  0  0  0  0  0  0  0
    6.9794  -24.8896   -7.9839 C   0  0  0  0  0  0  0  0  0  0  0  0
   12.3599  -25.1241  -16.9659 C   0  0  0  0  0  0  0  0  0  0  0  0
    0.0906  -29.5380   -8.4776 C   0  0  0  0  0  0  0  0  0  0  0  0
    7.3021  -26.1985   -8.5462 N   0  0  0  0  0  0  0  0  0  0  0  0
    8.1762  -29.8625  -10.1128 O   0  0  0  0  0  0  0  0  0  0  0  0
   14.3740  -27.0641  -13.4778 O   0  0  0  0  0  0  0  0  0  0  0  0
    3.7913  -31.7177   -8.0815 O   0  0  0  0  0  0  0  0  0  0  0  0
   14.3403  -24.6616  -15.0975 O   0  0  0  0  0  0  0  0  0  0  0  0
    1.8019  -30.7697  -10.2591 O   0  0  0  0  0  0  0  0  0  0  0  0
   12.9108  -27.7964  -11.1914 O   0  0  0  0  0  0  0  0  0  0  0  0
    6.3957  -30.6612   -7.8723 O   0  0  0  0  0  0  0  0  0  0  0  0
   12.4361  -25.8361  -15.7277 O   0  0  0  0  0  0  0  0  0  0  0  0
    1.4541  -29.8328   -8.1614 O   0  0  0  0  0  0  0  0  0  0  0  0
    4.8293  -21.4047  -11.8487 F   0  0  0  0  0  0  0  0  0  0  0  0
   11.1591  -24.5999  -10.5409 H   0  0  0  0  0  0  0  0  0  0  0  0
    7.9632  -22.4799   -8.7832 H   0  0  0  0  0  0  0  0  0  0  0  0
    4.7274  -25.2402   -9.4710 H   0  0  0  0  0  0  0  0  0  0  0  0
    9.1715  -24.2741   -9.1954 H   0  0  0  0  0  0  0  0  0  0  0  0
    7.0140  -20.9533  -10.4809 H   0  0  0  0  0  0  0  0  0  0  0  0
    3.7881  -23.7066  -11.1687 H   0  0  0  0  0  0  0  0  0  0  0  0
   10.1914  -28.7512  -11.0767 H   0  0  0  0  0  0  0  0  0  0  0  0
    5.6232  -27.0796   -7.7280 H   0  0  0  0  0  0  0  0  0  0  0  0
   11.4781  -25.4713  -13.2004 H   0  0  0  0  0  0  0  0  0  0  0  0
    4.1175  -28.7056   -9.4383 H   0  0  0  0  0  0  0  0  0  0  0  0
   11.2542  -26.6892  -17.9643 H   0  0  0  0  0  0  0  0  0  0  0  0
   10.2378  -25.4524  -17.1863 H   0  0  0  0  0  0  0  0  0  0  0  0
   11.0654  -25.0763  -18.6925 H   0  0  0  0  0  0  0  0  0  0  0  0
   -0.5365  -29.5213   -6.4099 H   0  0  0  0  0  0  0  0  0  0  0  0
   -0.0426  -27.9321   -7.0414 H   0  0  0  0  0  0  0  0  0  0  0  0
   -1.5985  -28.6078   -7.5078 H   0  0  0  0  0  0  0  0  0  0  0  0
    7.8963  -24.4718   -7.5542 H   0  0  0  0  0  0  0  0  0  0  0  0
    6.2749  -25.0437   -7.1598 H   0  0  0  0  0  0  0  0  0  0  0  0
   12.2620  -24.0555  -16.7526 H   0  0  0  0  0  0  0  0  0  0  0  0
   13.2830  -25.2944  -17.5278 H   0  0  0  0  0  0  0  0  0  0  0  0
    0.0659  -28.8782   -9.3500 H   0  0  0  0  0  0  0  0  0  0  0  0
   -0.4249  -30.4721   -8.7199 H   0  0  0  0  0  0  0  0  0  0  0  0
   13.6669  -27.8559  -11.7794 H   0  0  0  0  0  0  0  0  0  0  0  0
    7.3256  -30.4636   -7.7124 H   0  0  0  0  0  0  0  0  0  0  0  0
  1  4  2  0  0  0  0
  1  9  1  0  0  0  0
  2  5  2  0  0  0  0
  2 10  1  0  0  0  0
  3  6  1  0  0  0  0
  3 10  2  0  0  0  0
  4 11  1  0  0  0  0
  5 12  1  0  0  0  0
  6 12  2  0  0  0  0
  7  8  1  0  0  0  0
  7  9  2  0  0  0  0
  8 11  2  0  0  0  0
  8 14  1  0  0  0  0
  9 18  1  0  0  0  0
 10 26  1  0  0  0  0
 11 29  1  0  0  0  0
 12 39  1  0  0  0  0
 13 15  2  0  0  0  0
 13 29  1  0  0  0  0
 14 15  1  0  0  0  0
 14 30  2  0  0  0  0
 15 19  1  0  0  0  0
 16 18  2  0  0  0  0
 16 20  1  0  0  0  0
 17 19  2  0  0  0  0
 17 21  1  0  0  0  0
 18 35  1  0  0  0  0
 19 36  1  0  0  0  0
 20 22  1  0  0  0  0
 20 31  2  0  0  0  0
 21 23  1  0  0  0  0
 21 32  2  0  0  0  0
 22 33  2  0  0  0  0
 22 37  1  0  0  0  0
 23 34  2  0  0  0  0
 23 38  1  0  0  0  0
 24 27  1  0  0  0  0
 25 28  1  0  0  0  0
 26 29  1  0  0  0  0
 27 37  1  0  0  0  0
 28 38  1  0  0  0  0
  1 40  1  0  0  0  0
  2 41  1  0  0  0  0
  3 42  1  0  0  0  0
  4 43  1  0  0  0  0
  5 44  1  0  0  0  0
  6 45  1  0  0  0  0
  7 46  1  0  0  0  0
 13 47  1  0  0  0  0
 16 48  1  0  0  0  0
 17 49  1  0  0  0  0
 24 50  1  0  0  0  0
 24 51  1  0  0  0  0
 24 52  1  0  0  0  0
 25 53  1  0  0  0  0
 25 54  1  0  0  0  0
 25 55  1  0  0  0  0
 26 56  1  0  0  0  0
 26 57  1  0  0  0  0
 27 58  1  0  0  0  0
 27 59  1  0  0  0  0
 28 60  1  0  0  0  0
 28 61  1  0  0  0  0
 35 62  1  0  0  0  0
 36 63  1  0  0  0  0
M  END
> <Hybrid2>
-5.5515947341918945

> <Hybrid2>
-5.551595

$$$$
CHEMBL204751
  -OEChem-02152218483D

 63 65  0     0  0  0  0  0  0999 V2000
    9.7251  -25.4363  -10.9100 C   0  0  0  0  0  0  0  0  0  0  0  0
    6.2060  -22.9463   -9.5800 C   0  0  0  0  0  0  0  0  0  0  0  0
    4.5111  -24.6681   -9.5714 C   0  0  0  0  0  0  0  0  0  0  0  0
    8.6811  -25.2791   -9.9926 C   0  0  0  0  0  0  0  0  0  0  0  0
    5.4676  -22.2241  -10.5174 C   0  0  0  0  0  0  0  0  0  0  0  0
    3.7727  -23.9458  -10.5088 C   0  0  0  0  0  0  0  0  0  0  0  0
    9.3616  -27.8157  -10.9307 C   0  0  0  0  0  0  0  0  0  0  0  0
    8.3155  -27.6582  -10.0114 C   0  0  0  0  0  0  0  0  0  0  0  0
   10.0642  -26.7012  -11.3777 C   0  0  0  0  0  0  0  0  0  0  0  0
    5.7278  -24.1683   -9.1070 C   0  0  0  0  0  0  0  0  0  0  0  0
    7.9497  -26.3833   -9.5196 C   0  0  0  0  0  0  0  0  0  0  0  0
    4.2509  -22.7238  -10.9817 C   0  0  0  0  0  0  0  0  0  0  0  0
    6.2226  -27.4118   -8.1807 C   0  0  0  0  0  0  0  0  0  0  0  0
    7.5822  -28.8677   -9.5515 C   0  0  0  0  0  0  0  0  0  0  0  0
    6.4839  -28.6596   -8.5790 C   0  0  0  0  0  0  0  0  0  0  0  0
   12.4221  -26.4740  -12.0532 C   0  0  0  0  0  0  0  0  0  0  0  0
    4.4046  -29.8825   -8.2739 C   0  0  0  0  0  0  0  0  0  0  0  0
   11.1509  -26.8576  -12.3316 C   0  0  0  0  0  0  0  0  0  0  0  0
    5.7302  -29.7852   -8.0889 C   0  0  0  0  0  0  0  0  0  0  0  0
   13.5609  -26.6194  -12.9915 C   0  0  0  0  0  0  0  0  0  0  0  0
    3.5945  -31.0239   -7.7864 C   0  0  0  0  0  0  0  0  0  0  0  0
   14.8871  -26.1340  -12.4944 C   0  0  0  0  0  0  0  0  0  0  0  0
    2.1275  -30.9557   -8.0888 C   0  0  0  0  0  0  0  0  0  0  0  0
   15.7461  -22.7143  -11.5930 C   0  0  0  0  0  0  0  0  0  0  0  0
   -0.4364  -29.4474   -5.9910 C   0  0  0  0  0  0  0  0  0  0  0  0
    6.5218  -24.9459   -8.0975 C   0  0  0  0  0  0  0  0  0  0  0  0
   16.0016  -24.1909  -11.8076 C   0  0  0  0  0  0  0  0  0  0  0  0
    0.1031  -30.1719   -7.2058 C   0  0  0  0  0  0  0  0  0  0  0  0
    6.8869  -26.2709   -8.5923 N   0  0  0  0  0  0  0  0  0  0  0  0
    7.8814  -29.9813   -9.9657 O   0  0  0  0  0  0  0  0  0  0  0  0
   13.5183  -27.1132  -14.1055 O   0  0  0  0  0  0  0  0  0  0  0  0
    4.0131  -31.9924   -7.1751 O   0  0  0  0  0  0  0  0  0  0  0  0
   15.8328  -26.8880  -12.3767 O   0  0  0  0  0  0  0  0  0  0  0  0
    1.6626  -31.4205   -9.1106 O   0  0  0  0  0  0  0  0  0  0  0  0
   10.7854  -27.4465  -13.5346 O   0  0  0  0  0  0  0  0  0  0  0  0
    6.5094  -30.7098   -7.4329 O   0  0  0  0  0  0  0  0  0  0  0  0
   14.7959  -24.8108  -12.2637 O   0  0  0  0  0  0  0  0  0  0  0  0
    1.5189  -30.3223   -7.0679 O   0  0  0  0  0  0  0  0  0  0  0  0
    3.5404  -22.0290  -11.8799 F   0  0  0  0  0  0  0  0  0  0  0  0
   10.2642  -24.5545  -11.2492 H   0  0  0  0  0  0  0  0  0  0  0  0
    7.1533  -22.5492   -9.2247 H   0  0  0  0  0  0  0  0  0  0  0  0
    4.1305  -25.6191   -9.2083 H   0  0  0  0  0  0  0  0  0  0  0  0
    8.4583  -24.2685   -9.6605 H   0  0  0  0  0  0  0  0  0  0  0  0
    5.8394  -21.2724  -10.8851 H   0  0  0  0  0  0  0  0  0  0  0  0
    2.8256  -24.3347  -10.8708 H   0  0  0  0  0  0  0  0  0  0  0  0
    9.6304  -28.8033  -11.2991 H   0  0  0  0  0  0  0  0  0  0  0  0
    5.4276  -27.2064   -7.4699 H   0  0  0  0  0  0  0  0  0  0  0  0
   12.6611  -26.0351  -11.0882 H   0  0  0  0  0  0  0  0  0  0  0  0
    3.8625  -29.1046   -8.8054 H   0  0  0  0  0  0  0  0  0  0  0  0
   15.4368  -22.2324  -12.5246 H   0  0  0  0  0  0  0  0  0  0  0  0
   14.9652  -22.5630  -10.8405 H   0  0  0  0  0  0  0  0  0  0  0  0
   16.6478  -22.2169  -11.2204 H   0  0  0  0  0  0  0  0  0  0  0  0
   -0.2328  -30.0126   -5.0772 H   0  0  0  0  0  0  0  0  0  0  0  0
    0.0166  -28.4546   -5.9009 H   0  0  0  0  0  0  0  0  0  0  0  0
   -1.5174  -29.2971   -6.0799 H   0  0  0  0  0  0  0  0  0  0  0  0
    7.4452  -24.4154   -7.8409 H   0  0  0  0  0  0  0  0  0  0  0  0
    5.9550  -25.0794   -7.1701 H   0  0  0  0  0  0  0  0  0  0  0  0
   16.3105  -24.6668  -10.8721 H   0  0  0  0  0  0  0  0  0  0  0  0
   16.7814  -24.3403  -12.5603 H   0  0  0  0  0  0  0  0  0  0  0  0
   -0.1037  -29.6014   -8.1161 H   0  0  0  0  0  0  0  0  0  0  0  0
   -0.3498  -31.1639   -7.2938 H   0  0  0  0  0  0  0  0  0  0  0  0
   11.5555  -27.5123  -14.1036 H   0  0  0  0  0  0  0  0  0  0  0  0
    7.4295  -30.4220   -7.4263 H   0  0  0  0  0  0  0  0  0  0  0  0
  1  4  2  0  0  0  0
  1  9  1  0  0  0  0
  2  5  2  0  0  0  0
  2 10  1  0  0  0  0
  3  6  1  0  0  0  0
  3 10  2  0  0  0  0
  4 11  1  0  0  0  0
  5 12  1  0  0  0  0
  6 12  2  0  0  0  0
  7  8  1  0  0  0  0
  7  9  2  0  0  0  0
  8 11  2  0  0  0  0
  8 14  1  0  0  0  0
  9 18  1  0  0  0  0
 10 26  1  0  0  0  0
 11 29  1  0  0  0  0
 12 39  1  0  0  0  0
 13 15  2  0  0  0  0
 13 29  1  0  0  0  0
 14 15  1  0  0  0  0
 14 30  2  0  0  0  0
 15 19  1  0  0  0  0
 16 18  2  0  0  0  0
 16 20  1  0  0  0  0
 17 19  2  0  0  0  0
 17 21  1  0  0  0  0
 18 35  1  0  0  0  0
 19 36  1  0  0  0  0
 20 22  1  0  0  0  0
 20 31  2  0  0  0  0
 21 23  1  0  0  0  0
 21 32  2  0  0  0  0
 22 33  2  0  0  0  0
 22 37  1  0  0  0  0
 23 34  2  0  0  0  0
 23 38  1  0  0  0  0
 24 27  1  0  0  0  0
 25 28  1  0  0  0  0
 26 29  1  0  0  0  0
 27 37  1  0  0  0  0
 28 38  1  0  0  0  0
  1 40  1  0  0  0  0
  2 41  1  0  0  0  0
  3 42  1  0  0  0  0
  4 43  1  0  0  0  0
  5 44  1  0  0  0  0
  6 45  1  0  0  0  0
  7 46  1  0  0  0  0
 13 47  1  0  0  0  0
 16 48  1  0  0  0  0
 17 49  1  0  0  0  0
 24 50  1  0  0  0  0
 24 51  1  0  0  0  0
 24 52  1  0  0  0  0
 25 53  1  0  0  0  0
 25 54  1  0  0  0  0
 25 55  1  0  0  0  0
 26 56  1  0  0  0  0
 26 57  1  0  0  0  0
 27 58  1  0  0  0  0
 27 59  1  0  0  0  0
 28 60  1  0  0  0  0
 28 61  1  0  0  0  0
 35 62  1  0  0  0  0
 36 63  1  0  0  0  0
M  END
> <Hybrid2>
-5.5515947341918945

> <Hybrid2>
-4.628006

$$$$
CHEMBL144613
  -OEChem-02152218483D

 34 35  0     0  0  0  0  0  0999 V2000
    8.9273  -27.7649   -9.8515 C   0  0  0  0  0  0  0  0  0  0  0  0
   11.0793  -27.1377  -10.8405 C   0  0  0  0  0  0  0  0  0  0  0  0
    7.2795  -26.0680   -9.3690 C   0  0  0  0  0  0  0  0  0  0  0  0
   11.5530  -24.8223  -11.3331 C   0  0  0  0  0  0  0  0  0  0  0  0
    9.8104  -26.7922  -10.3477 C   0  0  0  0  0  0  0  0  0  0  0  0
    9.4129  -25.4339  -10.3511 C   0  0  0  0  0  0  0  0  0  0  0  0
    8.1441  -25.0884   -9.8582 C   0  0  0  0  0  0  0  0  0  0  0  0
   10.2960  -24.4611  -10.8473 C   0  0  0  0  0  0  0  0  0  0  0  0
    7.6704  -27.4037   -9.3656 C   0  0  0  0  0  0  0  0  0  0  0  0
   11.9438  -26.1580  -11.3298 C   0  0  0  0  0  0  0  0  0  0  0  0
    6.4299  -23.3182   -9.3561 C   0  0  0  0  0  0  0  0  0  0  0  0
    6.3013  -21.8216   -9.4903 C   0  0  0  0  0  0  0  0  0  0  0  0
    7.6672  -23.7721   -9.8223 N   0  0  0  0  0  0  0  0  0  0  0  0
    5.5172  -23.9870   -8.8822 O   0  0  0  0  0  0  0  0  0  0  0  0
    7.3896  -29.7680   -8.3316 O   0  0  0  0  0  0  0  0  0  0  0  0
    5.6883  -27.9693   -7.8174 O   0  0  0  0  0  0  0  0  0  0  0  0
   14.3875  -25.4451  -11.8379 O   0  0  0  0  0  0  0  0  0  0  0  0
   13.8783  -27.8615  -11.2939 O   0  0  0  0  0  0  0  0  0  0  0  0
    9.9968  -23.1289  -10.8888 O   0  0  0  0  0  0  0  0  0  0  0  0
    5.7108  -29.1128  -10.0439 O   0  0  0  0  0  0  0  0  0  0  0  0
   13.2948  -26.9013  -13.5306 O   0  0  0  0  0  0  0  0  0  0  0  0
    6.5874  -28.6284   -8.7517 S   0  0  0  0  0  0  0  0  0  0  0  0
   13.5177  -26.6080  -11.9377 S   0  0  0  0  0  0  0  0  0  0  0  0
    9.2224  -28.8128   -9.8434 H   0  0  0  0  0  0  0  0  0  0  0  0
   11.3958  -28.1793  -10.8430 H   0  0  0  0  0  0  0  0  0  0  0  0
    6.2983  -25.7919   -8.9886 H   0  0  0  0  0  0  0  0  0  0  0  0
   12.2265  -24.0580  -11.7137 H   0  0  0  0  0  0  0  0  0  0  0  0
    5.8714  -21.5729  -10.4647 H   0  0  0  0  0  0  0  0  0  0  0  0
    7.2879  -21.3565   -9.4091 H   0  0  0  0  0  0  0  0  0  0  0  0
    5.6595  -21.4293   -8.6959 H   0  0  0  0  0  0  0  0  0  0  0  0
    8.3024  -23.0530  -10.1808 H   0  0  0  0  0  0  0  0  0  0  0  0
   10.7397  -22.6340  -11.2652 H   0  0  0  0  0  0  0  0  0  0  0  0
    4.9808  -29.7449   -9.8437 H   0  0  0  0  0  0  0  0  0  0  0  0
   14.0807  -27.2600  -14.0061 H   0  0  0  0  0  0  0  0  0  0  0  0
  1  5  2  0  0  0  0
  1  9  1  0  0  0  0
  2  5  1  0  0  0  0
  2 10  2  0  0  0  0
  3  7  1  0  0  0  0
  3  9  2  0  0  0  0
  4  8  2  0  0  0  0
  4 10  1  0  0  0  0
  5  6  1  0  0  0  0
  6  7  2  0  0  0  0
  6  8  1  0  0  0  0
  7 13  1  0  0  0  0
  8 19  1  0  0  0  0
  9 22  1  0  0  0  0
 10 23  1  0  0  0  0
 11 12  1  0  0  0  0
 11 13  1  0  0  0  0
 11 14  2  0  0  0  0
 15 22  2  0  0  0  0
 16 22  2  0  0  0  0
 17 23  2  0  0  0  0
 18 23  2  0  0  0  0
 20 22  1  0  0  0  0
 21 23  1  0  0  0  0
  1 24  1  0  0  0  0
  2 25  1  0  0  0  0
  3 26  1  0  0  0  0
  4 27  1  0  0  0  0
 12 28  1  0  0  0  0
 12 29  1  0  0  0  0
 12 30  1  0  0  0  0
 13 31  1  0  0  0  0
 19 32  1  0  0  0  0
 20 33  1  0  0  0  0
 21 34  1  0  0  0  0
M  END
> <Hybrid2>
-4.389671802520752

> <Hybrid2>
-4.389672

$$$$
CHEMBL144613
  -OEChem-02152218483D

 34 35  0     0  0  0  0  0  0999 V2000
    8.2776  -24.2639  -10.0586 C   0  0  0  0  0  0  0  0  0  0  0  0
   10.3392  -24.8332  -11.2537 C   0  0  0  0  0  0  0  0  0  0  0  0
    6.8729  -26.0153   -9.1716 C   0  0  0  0  0  0  0  0  0  0  0  0
   10.9670  -27.1460  -11.5448 C   0  0  0  0  0  0  0  0  0  0  0  0
    9.1808  -25.2162  -10.5583 C   0  0  0  0  0  0  0  0  0  0  0  0
    8.9178  -26.5921  -10.3565 C   0  0  0  0  0  0  0  0  0  0  0  0
    7.7593  -26.9751   -9.6611 C   0  0  0  0  0  0  0  0  0  0  0  0
    9.8210  -27.5445  -10.8561 C   0  0  0  0  0  0  0  0  0  0  0  0
    7.1315  -24.6624   -9.3700 C   0  0  0  0  0  0  0  0  0  0  0  0
   11.2256  -25.7930  -11.7432 C   0  0  0  0  0  0  0  0  0  0  0  0
    6.2977  -28.8020   -8.7389 C   0  0  0  0  0  0  0  0  0  0  0  0
    6.2968  -30.3093   -8.6875 C   0  0  0  0  0  0  0  0  0  0  0  0
    7.4184  -28.3110   -9.4153 N   0  0  0  0  0  0  0  0  0  0  0  0
    5.3883  -28.1556   -8.2290 O   0  0  0  0  0  0  0  0  0  0  0  0
    6.1847  -22.2521   -9.5494 O   0  0  0  0  0  0  0  0  0  0  0  0
    4.7204  -24.1059   -8.6472 O   0  0  0  0  0  0  0  0  0  0  0  0
   13.0726  -26.3975  -13.4640 O   0  0  0  0  0  0  0  0  0  0  0  0
   12.3846  -23.9825  -13.1659 O   0  0  0  0  0  0  0  0  0  0  0  0
    9.6475  -28.8913  -10.7084 O   0  0  0  0  0  0  0  0  0  0  0  0
    6.5472  -23.1202   -7.2484 O   0  0  0  0  0  0  0  0  0  0  0  0
   13.8136  -25.1276  -11.4595 O   0  0  0  0  0  0  0  0  0  0  0  0
    6.0203  -23.4625   -8.7577 S   0  0  0  0  0  0  0  0  0  0  0  0
   12.6603  -25.2963  -12.6058 S   0  0  0  0  0  0  0  0  0  0  0  0
    8.4693  -23.2027  -10.2082 H   0  0  0  0  0  0  0  0  0  0  0  0
   10.5520  -23.7777  -11.4147 H   0  0  0  0  0  0  0  0  0  0  0  0
    5.9774  -26.3205   -8.6342 H   0  0  0  0  0  0  0  0  0  0  0  0
   11.6571  -27.8948  -11.9266 H   0  0  0  0  0  0  0  0  0  0  0  0
    6.8185  -30.6493   -7.7884 H   0  0  0  0  0  0  0  0  0  0  0  0
    6.8086  -30.7099   -9.5671 H   0  0  0  0  0  0  0  0  0  0  0  0
    5.2683  -30.6818   -8.6772 H   0  0  0  0  0  0  0  0  0  0  0  0
    8.0688  -29.0155   -9.7754 H   0  0  0  0  0  0  0  0  0  0  0  0
   10.3813  -29.3676  -11.1246 H   0  0  0  0  0  0  0  0  0  0  0  0
    5.9656  -22.5188   -6.7262 H   0  0  0  0  0  0  0  0  0  0  0  0
   14.6711  -24.7581  -11.7769 H   0  0  0  0  0  0  0  0  0  0  0  0
  1  5  2  0  0  0  0
  1  9  1  0  0  0  0
  2  5  1  0  0  0  0
  2 10  2  0  0  0  0
  3  7  1  0  0  0  0
  3  9  2  0  0  0  0
  4  8  2  0  0  0  0
  4 10  1  0  0  0  0
  5  6  1  0  0  0  0
  6  7  2  0  0  0  0
  6  8  1  0  0  0  0
  7 13  1  0  0  0  0
  8 19  1  0  0  0  0
  9 22  1  0  0  0  0
 10 23  1  0  0  0  0
 11 12  1  0  0  0  0
 11 13  1  0  0  0  0
 11 14  2  0  0  0  0
 15 22  2  0  0  0  0
 16 22  2  0  0  0  0
 17 23  2  0  0  0  0
 18 23  2  0  0  0  0
 20 22  1  0  0  0  0
 21 23  1  0  0  0  0
  1 24  1  0  0  0  0
  2 25  1  0  0  0  0
  3 26  1  0  0  0  0
  4 27  1  0  0  0  0
 12 28  1  0  0  0  0
 12 29  1  0  0  0  0
 12 30  1  0  0  0  0
 13 31  1  0  0  0  0
 19 32  1  0  0  0  0
 20 33  1  0  0  0  0
 21 34  1  0  0  0  0
M  END
> <Hybrid2>
-4.389671802520752

> <Hybrid2>
-3.843022

$$$$
CHEMBL87764
  -OEChem-02152218483D

 60 62  0     0  0  0  0  0  0999 V2000
    5.8614  -31.7275   -8.3722 C   0  0  0  0  0  0  0  0  0  0  0  0
    4.7256  -30.9236   -8.4691 C   0  0  0  0  0  0  0  0  0  0  0  0
   12.3244  -27.4208   -8.3388 C   0  0  0  0  0  0  0  0  0  0  0  0
    6.9425  -23.4351   -8.6295 C   0  0  0  0  0  0  0  0  0  0  0  0
   12.7844  -26.8913   -9.5444 C   0  0  0  0  0  0  0  0  0  0  0  0
    7.7299  -22.9366   -9.6673 C   0  0  0  0  0  0  0  0  0  0  0  0
    7.1212  -31.1423   -8.2456 C   0  0  0  0  0  0  0  0  0  0  0  0
    4.8496  -29.5346   -8.4394 C   0  0  0  0  0  0  0  0  0  0  0  0
   11.0587  -28.0032   -8.2706 C   0  0  0  0  0  0  0  0  0  0  0  0
    6.7075  -24.8064   -8.5290 C   0  0  0  0  0  0  0  0  0  0  0  0
   10.7130  -27.5263  -10.6137 C   0  0  0  0  0  0  0  0  0  0  0  0
    8.0473  -25.1807  -10.5042 C   0  0  0  0  0  0  0  0  0  0  0  0
   11.9787  -26.9439  -10.6819 C   0  0  0  0  0  0  0  0  0  0  0  0
    8.2823  -23.8094  -10.6047 C   0  0  0  0  0  0  0  0  0  0  0  0
    7.2453  -29.7533   -8.2159 C   0  0  0  0  0  0  0  0  0  0  0  0
    6.1095  -28.9494   -8.3128 C   0  0  0  0  0  0  0  0  0  0  0  0
   10.2530  -28.0559   -9.4081 C   0  0  0  0  0  0  0  0  0  0  0  0
    7.2599  -25.6792   -9.4664 C   0  0  0  0  0  0  0  0  0  0  0  0
   12.5984  -27.1477  -13.0570 C   0  0  0  0  0  0  0  0  0  0  0  0
    9.1768  -23.8965  -12.8980 C   0  0  0  0  0  0  0  0  0  0  0  0
   12.4582  -26.3921  -11.9390 C   0  0  0  0  0  0  0  0  0  0  0  0
    9.1035  -23.2900  -11.6867 C   0  0  0  0  0  0  0  0  0  0  0  0
   13.0895  -26.6299  -14.3568 C   0  0  0  0  0  0  0  0  0  0  0  0
   10.0050  -23.4071  -14.0264 C   0  0  0  0  0  0  0  0  0  0  0  0
   13.1728  -27.6246  -15.4725 C   0  0  0  0  0  0  0  0  0  0  0  0
    9.9500  -24.2183  -15.2835 C   0  0  0  0  0  0  0  0  0  0  0  0
    8.6105  -29.1461   -8.0779 C   0  0  0  0  0  0  0  0  0  0  0  0
    6.2175  -27.4600   -8.2842 C   0  0  0  0  0  0  0  0  0  0  0  0
   13.4495  -25.4879  -14.5870 O   0  0  0  0  0  0  0  0  0  0  0  0
   10.7351  -22.4307  -14.0130 O   0  0  0  0  0  0  0  0  0  0  0  0
   12.8594  -28.7882  -15.3264 O   0  0  0  0  0  0  0  0  0  0  0  0
    9.2702  -25.2195  -15.3780 O   0  0  0  0  0  0  0  0  0  0  0  0
   12.7778  -25.0417  -11.8941 O   0  0  0  0  0  0  0  0  0  0  0  0
    9.8171  -22.1413  -11.3719 O   0  0  0  0  0  0  0  0  0  0  0  0
   13.6557  -27.0276  -16.5703 O   0  0  0  0  0  0  0  0  0  0  0  0
   10.7632  -23.6786  -16.2013 O   0  0  0  0  0  0  0  0  0  0  0  0
    9.0180  -28.6241   -9.3417 O   0  0  0  0  0  0  0  0  0  0  0  0
    7.0291  -27.0264   -9.3678 O   0  0  0  0  0  0  0  0  0  0  0  0
    5.7644  -32.8087   -8.3961 H   0  0  0  0  0  0  0  0  0  0  0  0
    3.7449  -31.3799   -8.5680 H   0  0  0  0  0  0  0  0  0  0  0  0
   12.9518  -27.3800   -7.4532 H   0  0  0  0  0  0  0  0  0  0  0  0
    6.5125  -22.7555   -7.8995 H   0  0  0  0  0  0  0  0  0  0  0  0
   13.7733  -26.4402   -9.5820 H   0  0  0  0  0  0  0  0  0  0  0  0
    7.9040  -21.8651   -9.7327 H   0  0  0  0  0  0  0  0  0  0  0  0
    8.0002  -31.7775   -8.1724 H   0  0  0  0  0  0  0  0  0  0  0  0
    3.9587  -28.9167   -8.5151 H   0  0  0  0  0  0  0  0  0  0  0  0
   10.7057  -28.4139   -7.3285 H   0  0  0  0  0  0  0  0  0  0  0  0
    6.0930  -25.1887   -7.7184 H   0  0  0  0  0  0  0  0  0  0  0  0
   10.0773  -27.5718  -11.4957 H   0  0  0  0  0  0  0  0  0  0  0  0
    8.4739  -25.8693  -11.2309 H   0  0  0  0  0  0  0  0  0  0  0  0
   12.3531  -28.2061  -13.0345 H   0  0  0  0  0  0  0  0  0  0  0  0
    8.6132  -24.8061  -13.0877 H   0  0  0  0  0  0  0  0  0  0  0  0
    8.6060  -28.3354   -7.3413 H   0  0  0  0  0  0  0  0  0  0  0  0
    9.3370  -29.8965   -7.7480 H   0  0  0  0  0  0  0  0  0  0  0  0
    5.2306  -26.9870   -8.3717 H   0  0  0  0  0  0  0  0  0  0  0  0
    6.6673  -27.1150   -7.3441 H   0  0  0  0  0  0  0  0  0  0  0  0
   13.0839  -24.7583  -12.7584 H   0  0  0  0  0  0  0  0  0  0  0  0
   10.3296  -21.8659  -12.1351 H   0  0  0  0  0  0  0  0  0  0  0  0
   13.7491  -27.6511  -17.3219 H   0  0  0  0  0  0  0  0  0  0  0  0
   10.7756  -24.1939  -17.0359 H   0  0  0  0  0  0  0  0  0  0  0  0
  1  2  1  0  0  0  0
  1  7  2  0  0  0  0
  2  8  2  0  0  0  0
  3  5  2  0  0  0  0
  3  9  1  0  0  0  0
  4  6  1  0  0  0  0
  4 10  2  0  0  0  0
  5 13  1  0  0  0  0
  6 14  2  0  0  0  0
  7 15  1  0  0  0  0
  8 16  1  0  0  0  0
  9 17  2  0  0  0  0
 10 18  1  0  0  0  0
 11 13  2  0  0  0  0
 11 17  1  0  0  0  0
 12 14  1  0  0  0  0
 12 18  2  0  0  0  0
 13 21  1  0  0  0  0
 14 22  1  0  0  0  0
 15 16  2  0  0  0  0
 15 27  1  0  0  0  0
 16 28  1  0  0  0  0
 17 37  1  0  0  0  0
 18 38  1  0  0  0  0
 19 21  2  0  0  0  0
 19 23  1  0  0  0  0
 20 22  2  0  0  0  0
 20 24  1  0  0  0  0
 21 33  1  0  0  0  0
 22 34  1  0  0  0  0
 23 25  1  0  0  0  0
 23 29  2  0  0  0  0
 24 26  1  0  0  0  0
 24 30  2  0  0  0  0
 25 31  2  0  0  0  0
 25 35  1  0  0  0  0
 26 32  2  0  0  0  0
 26 36  1  0  0  0  0
 27 37  1  0  0  0  0
 28 38  1  0  0  0  0
  1 39  1  0  0  0  0
  2 40  1  0  0  0  0
  3 41  1  0  0  0  0
  4 42  1  0  0  0  0
  5 43  1  0  0  0  0
  6 44  1  0  0  0  0
  7 45  1  0  0  0  0
  8 46  1  0  0  0  0
  9 47  1  0  0  0  0
 10 48  1  0  0  0  0
 11 49  1  0  0  0  0
 12 50  1  0  0  0  0
 19 51  1  0  0  0  0
 20 52  1  0  0  0  0
 27 53  1  0  0  0  0
 27 54  1  0  0  0  0
 28 55  1  0  0  0  0
 28 56  1  0  0  0  0
 33 57  1  0  0  0  0
 34 58  1  0  0  0  0
 35 59  1  0  0  0  0
 36 60  1  0  0  0  0
M  END
> <Hybrid2>
-1.2055652141571045

> <Hybrid2>
-1.205565

$$$$
CHEMBL87764
  -OEChem-02152218483D

 60 62  0     0  0  0  0  0  0999 V2000
    4.0991  -30.9650  -10.1808 C   0  0  0  0  0  0  0  0  0  0  0  0
    3.1134  -29.9832  -10.2807 C   0  0  0  0  0  0  0  0  0  0  0  0
   10.9344  -27.8551   -8.1995 C   0  0  0  0  0  0  0  0  0  0  0  0
    6.2545  -23.0635   -8.4726 C   0  0  0  0  0  0  0  0  0  0  0  0
   11.6766  -27.1888   -9.1745 C   0  0  0  0  0  0  0  0  0  0  0  0
    7.2800  -22.5125   -9.2409 C   0  0  0  0  0  0  0  0  0  0  0  0
    5.3766  -30.6279   -9.7336 C   0  0  0  0  0  0  0  0  0  0  0  0
    3.4052  -28.6641   -9.9335 C   0  0  0  0  0  0  0  0  0  0  0  0
    9.6149  -28.2256   -8.4593 C   0  0  0  0  0  0  0  0  0  0  0  0
    5.8324  -24.3720   -8.7081 C   0  0  0  0  0  0  0  0  0  0  0  0
    9.7799  -27.2633  -10.6692 C   0  0  0  0  0  0  0  0  0  0  0  0
    7.4614  -24.5784  -10.4803 C   0  0  0  0  0  0  0  0  0  0  0  0
   11.0994  -26.8929  -10.4094 C   0  0  0  0  0  0  0  0  0  0  0  0
    7.8835  -23.2700  -10.2447 C   0  0  0  0  0  0  0  0  0  0  0  0
    5.6684  -29.3088   -9.3864 C   0  0  0  0  0  0  0  0  0  0  0  0
    4.6827  -28.3269   -9.4863 C   0  0  0  0  0  0  0  0  0  0  0  0
    9.0377  -27.9297   -9.6941 C   0  0  0  0  0  0  0  0  0  0  0  0
    6.4359  -25.1294   -9.7120 C   0  0  0  0  0  0  0  0  0  0  0  0
   13.0239  -26.7057  -11.9352 C   0  0  0  0  0  0  0  0  0  0  0  0
   10.1124  -22.2526  -10.4979 C   0  0  0  0  0  0  0  0  0  0  0  0
   11.8731  -26.1984  -11.4262 C   0  0  0  0  0  0  0  0  0  0  0  0
    8.9529  -22.6958  -11.0457 C   0  0  0  0  0  0  0  0  0  0  0  0
   13.8480  -26.0303  -12.9665 C   0  0  0  0  0  0  0  0  0  0  0  0
   11.2255  -21.6546  -11.2738 C   0  0  0  0  0  0  0  0  0  0  0  0
   15.0849  -26.7546  -13.3987 C   0  0  0  0  0  0  0  0  0  0  0  0
   12.4230  -21.2267  -10.4838 C   0  0  0  0  0  0  0  0  0  0  0  0
    7.0491  -28.9696   -8.9067 C   0  0  0  0  0  0  0  0  0  0  0  0
    4.9718  -26.9079   -9.1209 C   0  0  0  0  0  0  0  0  0  0  0  0
   13.6235  -24.9419  -13.4682 O   0  0  0  0  0  0  0  0  0  0  0  0
   11.2414  -21.4609  -12.4775 O   0  0  0  0  0  0  0  0  0  0  0  0
   15.3999  -27.8309  -12.9341 O   0  0  0  0  0  0  0  0  0  0  0  0
   12.4834  -21.3579   -9.2785 O   0  0  0  0  0  0  0  0  0  0  0  0
   11.3503  -24.9722  -11.8147 O   0  0  0  0  0  0  0  0  0  0  0  0
    8.6818  -22.6207  -12.4053 O   0  0  0  0  0  0  0  0  0  0  0  0
   15.7408  -26.0194  -14.3064 O   0  0  0  0  0  0  0  0  0  0  0  0
   13.3308  -20.6823  -11.3050 O   0  0  0  0  0  0  0  0  0  0  0  0
    7.7502  -28.2911   -9.9478 O   0  0  0  0  0  0  0  0  0  0  0  0
    6.0213  -26.4150   -9.9435 O   0  0  0  0  0  0  0  0  0  0  0  0
    3.8717  -31.9917  -10.4520 H   0  0  0  0  0  0  0  0  0  0  0  0
    2.1190  -30.2464  -10.6293 H   0  0  0  0  0  0  0  0  0  0  0  0
   11.3839  -28.0858   -7.2381 H   0  0  0  0  0  0  0  0  0  0  0  0
    5.7848  -22.4738   -7.6908 H   0  0  0  0  0  0  0  0  0  0  0  0
   12.7041  -26.9062   -8.9573 H   0  0  0  0  0  0  0  0  0  0  0  0
    7.5981  -21.4910   -9.0457 H   0  0  0  0  0  0  0  0  0  0  0  0
    6.1381  -31.4000   -9.6608 H   0  0  0  0  0  0  0  0  0  0  0  0
    2.6303  -27.9063  -10.0143 H   0  0  0  0  0  0  0  0  0  0  0  0
    9.0417  -28.7443   -7.6956 H   0  0  0  0  0  0  0  0  0  0  0  0
    5.0328  -24.7956   -8.1064 H   0  0  0  0  0  0  0  0  0  0  0  0
    9.3210  -27.0365  -11.6295 H   0  0  0  0  0  0  0  0  0  0  0  0
    7.9261  -25.1769  -11.2613 H   0  0  0  0  0  0  0  0  0  0  0  0
   13.4017  -27.6616  -11.5826 H   0  0  0  0  0  0  0  0  0  0  0  0
   10.2677  -22.3157   -9.4242 H   0  0  0  0  0  0  0  0  0  0  0  0
    7.0092  -28.3236   -8.0231 H   0  0  0  0  0  0  0  0  0  0  0  0
    7.5992  -29.8771   -8.6355 H   0  0  0  0  0  0  0  0  0  0  0  0
    4.0874  -26.2724   -9.2596 H   0  0  0  0  0  0  0  0  0  0  0  0
    5.2769  -26.8253   -8.0696 H   0  0  0  0  0  0  0  0  0  0  0  0
   11.9170  -24.5825  -12.4840 H   0  0  0  0  0  0  0  0  0  0  0  0
    9.4334  -22.2327  -12.8587 H   0  0  0  0  0  0  0  0  0  0  0  0
   16.5729  -26.4476  -14.6006 H   0  0  0  0  0  0  0  0  0  0  0  0
   14.1248  -20.3656  -10.8238 H   0  0  0  0  0  0  0  0  0  0  0  0
  1  2  1  0  0  0  0
  1  7  2  0  0  0  0
  2  8  2  0  0  0  0
  3  5  2  0  0  0  0
  3  9  1  0  0  0  0
  4  6  1  0  0  0  0
  4 10  2  0  0  0  0
  5 13  1  0  0  0  0
  6 14  2  0  0  0  0
  7 15  1  0  0  0  0
  8 16  1  0  0  0  0
  9 17  2  0  0  0  0
 10 18  1  0  0  0  0
 11 13  2  0  0  0  0
 11 17  1  0  0  0  0
 12 14  1  0  0  0  0
 12 18  2  0  0  0  0
 13 21  1  0  0  0  0
 14 22  1  0  0  0  0
 15 16  2  0  0  0  0
 15 27  1  0  0  0  0
 16 28  1  0  0  0  0
 17 37  1  0  0  0  0
 18 38  1  0  0  0  0
 19 21  2  0  0  0  0
 19 23  1  0  0  0  0
 20 22  2  0  0  0  0
 20 24  1  0  0  0  0
 21 33  1  0  0  0  0
 22 34  1  0  0  0  0
 23 25  1  0  0  0  0
 23 29  2  0  0  0  0
 24 26  1  0  0  0  0
 24 30  2  0  0  0  0
 25 31  2  0  0  0  0
 25 35  1  0  0  0  0
 26 32  2  0  0  0  0
 26 36  1  0  0  0  0
 27 37  1  0  0  0  0
 28 38  1  0  0  0  0
  1 39  1  0  0  0  0
  2 40  1  0  0  0  0
  3 41  1  0  0  0  0
  4 42  1  0  0  0  0
  5 43  1  0  0  0  0
  6 44  1  0  0  0  0
  7 45  1  0  0  0  0
  8 46  1  0  0  0  0
  9 47  1  0  0  0  0
 10 48  1  0  0  0  0
 11 49  1  0  0  0  0
 12 50  1  0  0  0  0
 19 51  1  0  0  0  0
 20 52  1  0  0  0  0
 27 53  1  0  0  0  0
 27 54  1  0  0  0  0
 28 55  1  0  0  0  0
 28 56  1  0  0  0  0
 33 57  1  0  0  0  0
 34 58  1  0  0  0  0
 35 59  1  0  0  0  0
 36 60  1  0  0  0  0
M  END
> <Hybrid2>
-1.2055652141571045

> <Hybrid2>
0.186535

$$$$
CHEMBL1159989
  -OEChem-02152218483D

 36 37  0     1  0  0  0  0  0999 V2000
   10.4384  -25.2154  -10.0692 C   0  0  0  0  0  0  0  0  0  0  0  0
    9.1500  -24.6861  -10.1321 C   0  0  0  0  0  0  0  0  0  0  0  0
    9.5373  -27.2933   -9.2425 C   0  0  0  0  0  0  0  0  0  0  0  0
   10.6320  -26.5190   -9.6246 C   0  0  0  0  0  0  0  0  0  0  0  0
    8.0366  -25.4557   -9.7547 C   0  0  0  0  0  0  0  0  0  0  0  0
    8.2333  -26.7725   -9.2970 C   0  0  0  0  0  0  0  0  0  0  0  0
   12.7669  -27.1890  -10.6543 C   0  0  0  0  0  0  0  0  0  0  0  0
   11.9744  -27.0745   -9.5591 C   0  0  0  0  0  0  0  0  0  0  0  0
   12.3673  -26.7704  -12.0195 C   0  0  0  0  0  0  0  0  0  0  0  0
   13.4739  -26.3128  -12.9180 C   0  0  0  0  0  0  0  0  0  0  0  0
    5.5293  -25.8559   -9.7470 C   0  0  0  0  0  0  0  0  0  0  0  0
    5.7810  -26.8848   -8.6467 C   0  0  0  0  0  0  0  0  0  0  0  0
    6.6631  -24.8273   -9.8107 C   0  0  1  0  0  0  0  0  0  0  0  0
    7.0763  -27.6618   -8.9029 C   0  0  1  0  0  0  0  0  0  0  0  0
    5.0652  -22.0917   -9.2436 N   0  0  0  0  0  0  0  0  0  0  0  0
    5.9651  -30.6754   -9.1055 N   0  0  0  0  0  0  0  0  0  0  0  0
    6.4844  -23.8711   -8.7062 N   0  0  0  0  0  0  0  0  0  0  0  0
    6.8126  -28.6648   -9.9472 N   0  0  0  0  0  0  0  0  0  0  0  0
    5.7240  -22.9228   -9.0022 N   0  0  0  0  0  0  0  0  0  0  0  0
    6.3596  -29.7368   -9.4882 N   0  0  0  0  0  0  0  0  0  0  0  0
   11.2308  -26.7430  -12.4603 O   0  0  0  0  0  0  0  0  0  0  0  0
   14.6317  -26.2829  -12.5545 O   0  0  0  0  0  0  0  0  0  0  0  0
   12.3665  -27.4936   -8.2948 O   0  0  0  0  0  0  0  0  0  0  0  0
   12.9664  -25.9409  -14.1008 O   0  0  0  0  0  0  0  0  0  0  0  0
   11.2804  -24.5965  -10.3695 H   0  0  0  0  0  0  0  0  0  0  0  0
    9.0157  -23.6635  -10.4773 H   0  0  0  0  0  0  0  0  0  0  0  0
    9.6898  -28.3152   -8.8989 H   0  0  0  0  0  0  0  0  0  0  0  0
   13.7682  -27.6012  -10.5626 H   0  0  0  0  0  0  0  0  0  0  0  0
    5.4473  -26.3712  -10.7127 H   0  0  0  0  0  0  0  0  0  0  0  0
    4.5691  -25.3556   -9.5727 H   0  0  0  0  0  0  0  0  0  0  0  0
    5.8475  -26.3708   -7.6792 H   0  0  0  0  0  0  0  0  0  0  0  0
    4.9291  -27.5723   -8.5818 H   0  0  0  0  0  0  0  0  0  0  0  0
    6.5638  -24.2783  -10.7557 H   0  0  0  0  0  0  0  0  0  0  0  0
    7.3363  -28.1923   -7.9781 H   0  0  0  0  0  0  0  0  0  0  0  0
   13.2587  -27.8447   -8.3385 H   0  0  0  0  0  0  0  0  0  0  0  0
   13.6570  -25.6107  -14.7142 H   0  0  0  0  0  0  0  0  0  0  0  0
  1  2  2  0  0  0  0
  1  4  1  0  0  0  0
  2  5  1  0  0  0  0
  3  4  2  0  0  0  0
  3  6  1  0  0  0  0
  4  8  1  0  0  0  0
  5  6  2  0  0  0  0
  5 13  1  0  0  0  0
  6 14  1  0  0  0  0
  7  8  2  0  0  0  0
  7  9  1  0  0  0  0
  8 23  1  0  0  0  0
  9 10  1  0  0  0  0
  9 21  2  0  0  0  0
 10 22  2  0  0  0  0
 10 24  1  0  0  0  0
 11 12  1  0  0  0  0
 11 13  1  0  0  0  0
 12 14  1  0  0  0  0
 13 17  1  0  0  0  0
 14 18  1  0  0  0  0
 15 19  3  0  0  0  0
 16 20  3  0  0  0  0
 17 19  2  0  0  0  0
 18 20  2  0  0  0  0
  1 25  1  0  0  0  0
  2 26  1  0  0  0  0
  3 27  1  0  0  0  0
  7 28  1  0  0  0  0
 11 29  1  0  0  0  0
 11 30  1  0  0  0  0
 12 31  1  0  0  0  0
 12 32  1  0  0  0  0
 13 33  1  0  0  0  0
 14 34  1  0  0  0  0
 23 35  1  0  0  0  0
 24 36  1  0  0  0  0
M  END
> <Hybrid2>
-5.041772842407227

> <Hybrid2>
-5.041773

$$$$
CHEMBL1159989
  -OEChem-02152218483D

 36 37  0     1  0  0  0  0  0999 V2000
   10.3211  -25.0717  -10.1701 C   0  0  0  0  0  0  0  0  0  0  0  0
    8.9732  -24.7231  -10.0944 C   0  0  0  0  0  0  0  0  0  0  0  0
    9.7644  -27.3334   -9.5473 C   0  0  0  0  0  0  0  0  0  0  0  0
   10.7167  -26.3769   -9.8968 C   0  0  0  0  0  0  0  0  0  0  0  0
    8.0016  -25.6772   -9.7479 C   0  0  0  0  0  0  0  0  0  0  0  0
    8.4029  -26.9963   -9.4633 C   0  0  0  0  0  0  0  0  0  0  0  0
   12.6894  -27.1991  -11.1212 C   0  0  0  0  0  0  0  0  0  0  0  0
   12.1216  -26.7439   -9.9762 C   0  0  0  0  0  0  0  0  0  0  0  0
   11.9607  -27.3728  -12.4009 C   0  0  0  0  0  0  0  0  0  0  0  0
   12.7702  -27.1989  -13.6482 C   0  0  0  0  0  0  0  0  0  0  0  0
    5.5761  -26.4207   -9.6428 C   0  0  0  0  0  0  0  0  0  0  0  0
    6.0413  -27.5200   -8.6900 C   0  0  0  0  0  0  0  0  0  0  0  0
    6.5570  -25.2437   -9.6485 C   0  0  1  0  0  0  0  0  0  0  0  0
    7.4051  -28.0760   -9.1122 C   0  0  1  0  0  0  0  0  0  0  0  0
    6.6967  -22.1600   -8.7376 N   0  0  0  0  0  0  0  0  0  0  0  0
    7.7852  -31.1998   -9.7867 N   0  0  0  0  0  0  0  0  0  0  0  0
    6.3360  -24.4499   -8.4289 N   0  0  0  0  0  0  0  0  0  0  0  0
    7.1993  -28.9841  -10.2519 N   0  0  0  0  0  0  0  0  0  0  0  0
    6.5311  -23.2265   -8.6030 N   0  0  0  0  0  0  0  0  0  0  0  0
    7.5151  -30.1669   -9.9944 N   0  0  0  0  0  0  0  0  0  0  0  0
   10.7726  -27.6169  -12.5253 O   0  0  0  0  0  0  0  0  0  0  0  0
   13.9535  -26.9298  -13.6190 O   0  0  0  0  0  0  0  0  0  0  0  0
   12.8233  -26.6100   -8.7856 O   0  0  0  0  0  0  0  0  0  0  0  0
   11.9817  -27.3551  -14.7199 O   0  0  0  0  0  0  0  0  0  0  0  0
   11.0500  -24.3123  -10.4424 H   0  0  0  0  0  0  0  0  0  0  0  0
    8.6806  -23.6973  -10.3063 H   0  0  0  0  0  0  0  0  0  0  0  0
   10.0750  -28.3559   -9.3380 H   0  0  0  0  0  0  0  0  0  0  0  0
   13.7454  -27.4546  -11.1425 H   0  0  0  0  0  0  0  0  0  0  0  0
    5.4916  -26.8322  -10.6569 H   0  0  0  0  0  0  0  0  0  0  0  0
    4.5740  -26.0813   -9.3545 H   0  0  0  0  0  0  0  0  0  0  0  0
    6.1108  -27.1121   -7.6735 H   0  0  0  0  0  0  0  0  0  0  0  0
    5.2943  -28.3223   -8.6587 H   0  0  0  0  0  0  0  0  0  0  0  0
    6.3170  -24.6125  -10.5136 H   0  0  0  0  0  0  0  0  0  0  0  0
    7.8001  -28.6643   -8.2742 H   0  0  0  0  0  0  0  0  0  0  0  0
   13.7365  -26.8709   -8.9234 H   0  0  0  0  0  0  0  0  0  0  0  0
   12.4686  -27.2258  -15.5616 H   0  0  0  0  0  0  0  0  0  0  0  0
  1  2  2  0  0  0  0
  1  4  1  0  0  0  0
  2  5  1  0  0  0  0
  3  4  2  0  0  0  0
  3  6  1  0  0  0  0
  4  8  1  0  0  0  0
  5  6  2  0  0  0  0
  5 13  1  0  0  0  0
  6 14  1  0  0  0  0
  7  8  2  0  0  0  0
  7  9  1  0  0  0  0
  8 23  1  0  0  0  0
  9 10  1  0  0  0  0
  9 21  2  0  0  0  0
 10 22  2  0  0  0  0
 10 24  1  0  0  0  0
 11 12  1  0  0  0  0
 11 13  1  0  0  0  0
 12 14  1  0  0  0  0
 13 17  1  0  0  0  0
 14 18  1  0  0  0  0
 15 19  3  0  0  0  0
 16 20  3  0  0  0  0
 17 19  2  0  0  0  0
 18 20  2  0  0  0  0
  1 25  1  0  0  0  0
  2 26  1  0  0  0  0
  3 27  1  0  0  0  0
  7 28  1  0  0  0  0
 11 29  1  0  0  0  0
 11 30  1  0  0  0  0
 12 31  1  0  0  0  0
 12 32  1  0  0  0  0
 13 33  1  0  0  0  0
 14 34  1  0  0  0  0
 23 35  1  0  0  0  0
 24 36  1  0  0  0  0
M  END
> <Hybrid2>
-5.041772842407227

> <Hybrid2>
-4.627123

$$$$
CHEMBL379382
  -OEChem-02152218483D

 46 50  0     0  0  0  0  0  0999 V2000
    9.2710  -25.6793  -15.7368 C   0  0  0  0  0  0  0  0  0  0  0  0
   14.3186  -27.3335  -12.3902 C   0  0  0  0  0  0  0  0  0  0  0  0
   12.9987  -26.9941  -12.6510 C   0  0  0  0  0  0  0  0  0  0  0  0
    5.1598  -27.7774   -9.9490 C   0  0  0  0  0  0  0  0  0  0  0  0
    5.9178  -28.2033   -7.6949 C   0  0  0  0  0  0  0  0  0  0  0  0
    9.2451  -26.9955  -15.2757 C   0  0  0  0  0  0  0  0  0  0  0  0
    9.7742  -24.6648  -14.9225 C   0  0  0  0  0  0  0  0  0  0  0  0
    4.4068  -28.9510   -9.9176 C   0  0  0  0  0  0  0  0  0  0  0  0
    5.1647  -29.3769   -7.6634 C   0  0  0  0  0  0  0  0  0  0  0  0
   14.6626  -27.6089  -11.0820 C   0  0  0  0  0  0  0  0  0  0  0  0
   12.0650  -26.9390  -11.6089 C   0  0  0  0  0  0  0  0  0  0  0  0
   10.7215  -26.5961  -11.8570 C   0  0  0  0  0  0  0  0  0  0  0  0
   10.2255  -26.2825  -13.1858 C   0  0  0  0  0  0  0  0  0  0  0  0
   10.2926  -26.8525   -9.5135 C   0  0  0  0  0  0  0  0  0  0  0  0
    9.8431  -26.5567  -10.7946 C   0  0  0  0  0  0  0  0  0  0  0  0
    5.9154  -27.4035   -8.8377 C   0  0  0  0  0  0  0  0  0  0  0  0
   12.5169  -27.2402  -10.2936 C   0  0  0  0  0  0  0  0  0  0  0  0
   11.6055  -27.1918   -9.2425 C   0  0  0  0  0  0  0  0  0  0  0  0
    4.4092  -29.7508   -8.7748 C   0  0  0  0  0  0  0  0  0  0  0  0
    9.7223  -27.2971  -14.0002 C   0  0  0  0  0  0  0  0  0  0  0  0
   10.2514  -24.9663  -13.6470 C   0  0  0  0  0  0  0  0  0  0  0  0
    9.1603  -26.7352   -8.5875 C   0  0  0  0  0  0  0  0  0  0  0  0
    8.3900  -26.2286  -10.7785 C   0  0  0  0  0  0  0  0  0  0  0  0
    6.7256  -26.1399   -8.8706 C   0  0  0  0  0  0  0  0  0  0  0  0
   13.7969  -27.5689  -10.0433 N   0  0  0  0  0  0  0  0  0  0  0  0
    8.0663  -26.3691   -9.3639 N   0  0  0  0  0  0  0  0  0  0  0  0
    9.2257  -26.9319   -7.3880 O   0  0  0  0  0  0  0  0  0  0  0  0
   12.0004  -27.4739   -7.9710 O   0  0  0  0  0  0  0  0  0  0  0  0
    3.6839  -30.8765   -8.7435 F   0  0  0  0  0  0  0  0  0  0  0  0
    9.6908  -28.5675  -13.5717 F   0  0  0  0  0  0  0  0  0  0  0  0
   10.7298  -23.9790  -12.8756 F   0  0  0  0  0  0  0  0  0  0  0  0
    8.8996  -25.4440  -16.7299 H   0  0  0  0  0  0  0  0  0  0  0  0
   15.0531  -27.3801  -13.1857 H   0  0  0  0  0  0  0  0  0  0  0  0
   12.7278  -26.7760  -13.6809 H   0  0  0  0  0  0  0  0  0  0  0  0
    5.1523  -27.1611  -10.8442 H   0  0  0  0  0  0  0  0  0  0  0  0
    6.5032  -27.9198   -6.8241 H   0  0  0  0  0  0  0  0  0  0  0  0
    8.8539  -27.7856  -15.9103 H   0  0  0  0  0  0  0  0  0  0  0  0
    9.7933  -23.6400  -15.2812 H   0  0  0  0  0  0  0  0  0  0  0  0
    3.8180  -29.2418  -10.7824 H   0  0  0  0  0  0  0  0  0  0  0  0
    5.1666  -30.0001   -6.7740 H   0  0  0  0  0  0  0  0  0  0  0  0
   15.6804  -27.8806  -10.8213 H   0  0  0  0  0  0  0  0  0  0  0  0
    8.1942  -25.1981  -11.0881 H   0  0  0  0  0  0  0  0  0  0  0  0
    7.7966  -26.9457  -11.3528 H   0  0  0  0  0  0  0  0  0  0  0  0
    6.2512  -25.3938   -9.5173 H   0  0  0  0  0  0  0  0  0  0  0  0
    6.8073  -25.6993   -7.8713 H   0  0  0  0  0  0  0  0  0  0  0  0
   11.2500  -27.3958   -7.3605 H   0  0  0  0  0  0  0  0  0  0  0  0
  1  6  1  0  0  0  0
  1  7  2  0  0  0  0
  2  3  2  0  0  0  0
  2 10  1  0  0  0  0
  3 11  1  0  0  0  0
  4  8  2  0  0  0  0
  4 16  1  0  0  0  0
  5  9  1  0  0  0  0
  5 16  2  0  0  0  0
  6 20  2  0  0  0  0
  7 21  1  0  0  0  0
  8 19  1  0  0  0  0
  9 19  2  0  0  0  0
 10 25  2  0  0  0  0
 11 12  2  0  0  0  0
 11 17  1  0  0  0  0
 12 13  1  0  0  0  0
 12 15  1  0  0  0  0
 13 20  1  0  0  0  0
 13 21  2  0  0  0  0
 14 15  2  0  0  0  0
 14 18  1  0  0  0  0
 14 22  1  0  0  0  0
 15 23  1  0  0  0  0
 16 24  1  0  0  0  0
 17 18  2  0  0  0  0
 17 25  1  0  0  0  0
 18 28  1  0  0  0  0
 19 29  1  0  0  0  0
 20 30  1  0  0  0  0
 21 31  1  0  0  0  0
 22 26  1  0  0  0  0
 22 27  2  0  0  0  0
 23 26  1  0  0  0  0
 24 26  1  0  0  0  0
  1 32  1  0  0  0  0
  2 33  1  0  0  0  0
  3 34  1  0  0  0  0
  4 35  1  0  0  0  0
  5 36  1  0  0  0  0
  6 37  1  0  0  0  0
  7 38  1  0  0  0  0
  8 39  1  0  0  0  0
  9 40  1  0  0  0  0
 10 41  1  0  0  0  0
 23 42  1  0  0  0  0
 23 43  1  0  0  0  0
 24 44  1  0  0  0  0
 24 45  1  0  0  0  0
 28 46  1  0  0  0  0
M  END
> <Hybrid2>
-3.6103029251098633

> <Hybrid2>
-3.610303

$$$$
CHEMBL379382
  -OEChem-02152218483D

 46 50  0     0  0  0  0  0  0999 V2000
    4.7715  -28.6213   -8.2485 C   0  0  0  0  0  0  0  0  0  0  0  0
    5.6271  -22.4045   -8.0636 C   0  0  0  0  0  0  0  0  0  0  0  0
    5.8733  -23.7312   -8.3872 C   0  0  0  0  0  0  0  0  0  0  0  0
   13.2648  -26.7978  -12.1670 C   0  0  0  0  0  0  0  0  0  0  0  0
   12.5921  -28.4682  -10.5563 C   0  0  0  0  0  0  0  0  0  0  0  0
    4.5149  -27.9726   -9.4564 C   0  0  0  0  0  0  0  0  0  0  0  0
    5.8428  -28.2154   -7.4527 C   0  0  0  0  0  0  0  0  0  0  0  0
   14.5609  -26.8233  -11.6522 C   0  0  0  0  0  0  0  0  0  0  0  0
   13.8882  -28.4938  -10.0415 C   0  0  0  0  0  0  0  0  0  0  0  0
    6.5123  -21.4555   -8.5342 C   0  0  0  0  0  0  0  0  0  0  0  0
    6.9864  -24.0730   -9.1651 C   0  0  0  0  0  0  0  0  0  0  0  0
    7.2503  -25.4149   -9.5022 C   0  0  0  0  0  0  0  0  0  0  0  0
    6.4010  -26.5123   -9.0727 C   0  0  0  0  0  0  0  0  0  0  0  0
    9.1889  -24.6647  -10.6944 C   0  0  0  0  0  0  0  0  0  0  0  0
    8.3602  -25.6966  -10.2708 C   0  0  0  0  0  0  0  0  0  0  0  0
   12.2804  -27.6202  -11.6190 C   0  0  0  0  0  0  0  0  0  0  0  0
    7.8404  -23.0223   -9.6030 C   0  0  0  0  0  0  0  0  0  0  0  0
    8.9528  -23.3394  -10.3776 C   0  0  0  0  0  0  0  0  0  0  0  0
   14.8726  -27.6713  -10.5894 C   0  0  0  0  0  0  0  0  0  0  0  0
    5.3297  -26.9182   -9.8685 C   0  0  0  0  0  0  0  0  0  0  0  0
    6.6575  -27.1610   -7.8648 C   0  0  0  0  0  0  0  0  0  0  0  0
   10.2798  -25.2434  -11.4869 C   0  0  0  0  0  0  0  0  0  0  0  0
    8.8636  -27.0096  -10.7626 C   0  0  0  0  0  0  0  0  0  0  0  0
   10.8852  -27.5938  -12.1732 C   0  0  0  0  0  0  0  0  0  0  0  0
    7.5997  -21.7371   -9.2879 N   0  0  0  0  0  0  0  0  0  0  0  0
   10.0553  -26.6155  -11.5042 N   0  0  0  0  0  0  0  0  0  0  0  0
   11.1755  -24.6001  -12.0026 O   0  0  0  0  0  0  0  0  0  0  0  0
    9.7923  -22.3618  -10.8153 O   0  0  0  0  0  0  0  0  0  0  0  0
   16.1179  -27.6979  -10.0967 F   0  0  0  0  0  0  0  0  0  0  0  0
    5.0694  -26.3046  -11.0323 F   0  0  0  0  0  0  0  0  0  0  0  0
    7.6849  -26.7845   -7.0892 F   0  0  0  0  0  0  0  0  0  0  0  0
    4.1374  -29.4423   -7.9271 H   0  0  0  0  0  0  0  0  0  0  0  0
    4.7702  -22.1239   -7.4623 H   0  0  0  0  0  0  0  0  0  0  0  0
    5.1771  -24.4788   -8.0158 H   0  0  0  0  0  0  0  0  0  0  0  0
   13.0313  -26.1332  -12.9946 H   0  0  0  0  0  0  0  0  0  0  0  0
   11.8317  -29.1128  -10.1231 H   0  0  0  0  0  0  0  0  0  0  0  0
    3.6801  -28.2883  -10.0756 H   0  0  0  0  0  0  0  0  0  0  0  0
    6.0431  -28.7212   -6.5128 H   0  0  0  0  0  0  0  0  0  0  0  0
   15.3275  -26.1837  -12.0791 H   0  0  0  0  0  0  0  0  0  0  0  0
   14.1312  -29.1535   -9.2138 H   0  0  0  0  0  0  0  0  0  0  0  0
    6.3675  -20.4032   -8.3121 H   0  0  0  0  0  0  0  0  0  0  0  0
    9.1564  -27.6741   -9.9447 H   0  0  0  0  0  0  0  0  0  0  0  0
    8.1611  -27.4928  -11.4476 H   0  0  0  0  0  0  0  0  0  0  0  0
   10.8986  -27.3509  -13.2413 H   0  0  0  0  0  0  0  0  0  0  0  0
   10.4020  -28.5709  -12.0679 H   0  0  0  0  0  0  0  0  0  0  0  0
   10.5129  -22.7468  -11.3392 H   0  0  0  0  0  0  0  0  0  0  0  0
  1  6  1  0  0  0  0
  1  7  2  0  0  0  0
  2  3  2  0  0  0  0
  2 10  1  0  0  0  0
  3 11  1  0  0  0  0
  4  8  2  0  0  0  0
  4 16  1  0  0  0  0
  5  9  1  0  0  0  0
  5 16  2  0  0  0  0
  6 20  2  0  0  0  0
  7 21  1  0  0  0  0
  8 19  1  0  0  0  0
  9 19  2  0  0  0  0
 10 25  2  0  0  0  0
 11 12  2  0  0  0  0
 11 17  1  0  0  0  0
 12 13  1  0  0  0  0
 12 15  1  0  0  0  0
 13 20  1  0  0  0  0
 13 21  2  0  0  0  0
 14 15  2  0  0  0  0
 14 18  1  0  0  0  0
 14 22  1  0  0  0  0
 15 23  1  0  0  0  0
 16 24  1  0  0  0  0
 17 18  2  0  0  0  0
 17 25  1  0  0  0  0
 18 28  1  0  0  0  0
 19 29  1  0  0  0  0
 20 30  1  0  0  0  0
 21 31  1  0  0  0  0
 22 26  1  0  0  0  0
 22 27  2  0  0  0  0
 23 26  1  0  0  0  0
 24 26  1  0  0  0  0
  1 32  1  0  0  0  0
  2 33  1  0  0  0  0
  3 34  1  0  0  0  0
  4 35  1  0  0  0  0
  5 36  1  0  0  0  0
  6 37  1  0  0  0  0
  7 38  1  0  0  0  0
  8 39  1  0  0  0  0
  9 40  1  0  0  0  0
 10 41  1  0  0  0  0
 23 42  1  0  0  0  0
 23 43  1  0  0  0  0
 24 44  1  0  0  0  0
 24 45  1  0  0  0  0
 28 46  1  0  0  0  0
M  END
> <Hybrid2>
-3.6103029251098633

> <Hybrid2>
-3.155894

$$$$
CHEMBL108253
  -OEChem-02152218483D

 36 37  0     0  0  0  0  0  0999 V2000
    4.0518  -31.5317   -7.9457 C   0  0  0  0  0  0  0  0  0  0  0  0
    3.3051  -30.4011   -8.2768 C   0  0  0  0  0  0  0  0  0  0  0  0
    5.4443  -31.4606   -7.9052 C   0  0  0  0  0  0  0  0  0  0  0  0
    8.4497  -24.6674   -9.8324 C   0  0  0  0  0  0  0  0  0  0  0  0
    9.7104  -24.8752  -10.3921 C   0  0  0  0  0  0  0  0  0  0  0  0
    3.9509  -29.1994   -8.5675 C   0  0  0  0  0  0  0  0  0  0  0  0
    6.0901  -30.2589   -8.1959 C   0  0  0  0  0  0  0  0  0  0  0  0
    7.6450  -25.7578   -9.5019 C   0  0  0  0  0  0  0  0  0  0  0  0
    9.3617  -27.2638  -10.2908 C   0  0  0  0  0  0  0  0  0  0  0  0
   10.1663  -26.1733  -10.6213 C   0  0  0  0  0  0  0  0  0  0  0  0
    5.3434  -29.1283   -8.5270 C   0  0  0  0  0  0  0  0  0  0  0  0
    8.1010  -27.0560   -9.7311 C   0  0  0  0  0  0  0  0  0  0  0  0
   12.4538  -27.0849  -10.5633 C   0  0  0  0  0  0  0  0  0  0  0  0
   11.4807  -26.3901  -11.2045 C   0  0  0  0  0  0  0  0  0  0  0  0
   13.8088  -27.3244  -11.1159 C   0  0  0  0  0  0  0  0  0  0  0  0
   14.7413  -28.1156  -10.2523 C   0  0  0  0  0  0  0  0  0  0  0  0
    6.0387  -27.8359   -8.8399 C   0  0  0  0  0  0  0  0  0  0  0  0
   14.2324  -26.9188  -12.1849 O   0  0  0  0  0  0  0  0  0  0  0  0
   14.4128  -28.5372   -9.1625 O   0  0  0  0  0  0  0  0  0  0  0  0
   11.6619  -25.8134  -12.4544 O   0  0  0  0  0  0  0  0  0  0  0  0
   15.9292  -28.2288  -10.8614 O   0  0  0  0  0  0  0  0  0  0  0  0
    7.3160  -28.1201   -9.4086 O   0  0  0  0  0  0  0  0  0  0  0  0
    3.5488  -32.4670   -7.7180 H   0  0  0  0  0  0  0  0  0  0  0  0
    2.2208  -30.4559   -8.3073 H   0  0  0  0  0  0  0  0  0  0  0  0
    6.0260  -32.3404   -7.6463 H   0  0  0  0  0  0  0  0  0  0  0  0
    8.0948  -23.6567   -9.6537 H   0  0  0  0  0  0  0  0  0  0  0  0
   10.3262  -24.0151  -10.6447 H   0  0  0  0  0  0  0  0  0  0  0  0
    3.3609  -28.3235   -8.8247 H   0  0  0  0  0  0  0  0  0  0  0  0
    7.1754  -30.2129   -8.1620 H   0  0  0  0  0  0  0  0  0  0  0  0
    6.6638  -25.5896   -9.0664 H   0  0  0  0  0  0  0  0  0  0  0  0
    9.7088  -28.2800  -10.4661 H   0  0  0  0  0  0  0  0  0  0  0  0
   12.2679  -27.4999   -9.5764 H   0  0  0  0  0  0  0  0  0  0  0  0
    5.4561  -27.2396   -9.5503 H   0  0  0  0  0  0  0  0  0  0  0  0
    6.1746  -27.2390   -7.9316 H   0  0  0  0  0  0  0  0  0  0  0  0
   12.5496  -26.0023  -12.7664 H   0  0  0  0  0  0  0  0  0  0  0  0
   16.5801  -28.7219  -10.3179 H   0  0  0  0  0  0  0  0  0  0  0  0
  1  2  1  0  0  0  0
  1  3  2  0  0  0  0
  2  6  2  0  0  0  0
  3  7  1  0  0  0  0
  4  5  2  0  0  0  0
  4  8  1  0  0  0  0
  5 10  1  0  0  0  0
  6 11  1  0  0  0  0
  7 11  2  0  0  0  0
  8 12  2  0  0  0  0
  9 10  2  0  0  0  0
  9 12  1  0  0  0  0
 10 14  1  0  0  0  0
 11 17  1  0  0  0  0
 12 22  1  0  0  0  0
 13 14  2  0  0  0  0
 13 15  1  0  0  0  0
 14 20  1  0  0  0  0
 15 16  1  0  0  0  0
 15 18  2  0  0  0  0
 16 19  2  0  0  0  0
 16 21  1  0  0  0  0
 17 22  1  0  0  0  0
  1 23  1  0  0  0  0
  2 24  1  0  0  0  0
  3 25  1  0  0  0  0
  4 26  1  0  0  0  0
  5 27  1  0  0  0  0
  6 28  1  0  0  0  0
  7 29  1  0  0  0  0
  8 30  1  0  0  0  0
  9 31  1  0  0  0  0
 13 32  1  0  0  0  0
 17 33  1  0  0  0  0
 17 34  1  0  0  0  0
 20 35  1  0  0  0  0
 21 36  1  0  0  0  0
M  END
> <Hybrid2>
-5.632563591003418

> <Hybrid2>
-5.632564

$$$$
CHEMBL108253
  -OEChem-02152218483D

 36 37  0     0  0  0  0  0  0999 V2000
    4.1059  -31.3839   -8.2877 C   0  0  0  0  0  0  0  0  0  0  0  0
    3.3592  -30.2533   -8.6188 C   0  0  0  0  0  0  0  0  0  0  0  0
    5.4985  -31.3128   -8.2472 C   0  0  0  0  0  0  0  0  0  0  0  0
    8.5038  -24.5196  -10.1745 C   0  0  0  0  0  0  0  0  0  0  0  0
    9.7645  -24.7274  -10.7341 C   0  0  0  0  0  0  0  0  0  0  0  0
    4.0050  -29.0515   -8.9095 C   0  0  0  0  0  0  0  0  0  0  0  0
    6.1442  -30.1111   -8.5379 C   0  0  0  0  0  0  0  0  0  0  0  0
    7.6992  -25.6100   -9.8439 C   0  0  0  0  0  0  0  0  0  0  0  0
    9.4158  -27.1159  -10.6328 C   0  0  0  0  0  0  0  0  0  0  0  0
   10.2204  -26.0255  -10.9633 C   0  0  0  0  0  0  0  0  0  0  0  0
    5.3975  -28.9804   -8.8691 C   0  0  0  0  0  0  0  0  0  0  0  0
    8.1551  -26.9082  -10.0731 C   0  0  0  0  0  0  0  0  0  0  0  0
   12.5079  -26.9371  -10.9054 C   0  0  0  0  0  0  0  0  0  0  0  0
   11.5349  -26.2423  -11.5466 C   0  0  0  0  0  0  0  0  0  0  0  0
   13.8629  -27.1766  -11.4579 C   0  0  0  0  0  0  0  0  0  0  0  0
   14.7955  -27.9678  -10.5944 C   0  0  0  0  0  0  0  0  0  0  0  0
    6.0928  -27.6881   -9.1819 C   0  0  0  0  0  0  0  0  0  0  0  0
   14.2865  -26.7710  -12.5269 O   0  0  0  0  0  0  0  0  0  0  0  0
   14.4670  -28.3894   -9.5045 O   0  0  0  0  0  0  0  0  0  0  0  0
   11.7160  -25.6655  -12.7964 O   0  0  0  0  0  0  0  0  0  0  0  0
   15.9833  -28.0809  -11.2035 O   0  0  0  0  0  0  0  0  0  0  0  0
    7.3701  -27.9722   -9.7507 O   0  0  0  0  0  0  0  0  0  0  0  0
    3.6029  -32.3192   -8.0600 H   0  0  0  0  0  0  0  0  0  0  0  0
    2.2749  -30.3081   -8.6493 H   0  0  0  0  0  0  0  0  0  0  0  0
    6.0801  -32.1926   -7.9884 H   0  0  0  0  0  0  0  0  0  0  0  0
    8.1489  -23.5088   -9.9957 H   0  0  0  0  0  0  0  0  0  0  0  0
   10.3803  -23.8673  -10.9868 H   0  0  0  0  0  0  0  0  0  0  0  0
    3.4150  -28.1757   -9.1667 H   0  0  0  0  0  0  0  0  0  0  0  0
    7.2295  -30.0651   -8.5040 H   0  0  0  0  0  0  0  0  0  0  0  0
    6.7179  -25.4418   -9.4084 H   0  0  0  0  0  0  0  0  0  0  0  0
    9.7629  -28.1322  -10.8081 H   0  0  0  0  0  0  0  0  0  0  0  0
   12.3220  -27.3521   -9.9184 H   0  0  0  0  0  0  0  0  0  0  0  0
    5.5102  -27.0917   -9.8924 H   0  0  0  0  0  0  0  0  0  0  0  0
    6.2287  -27.0912   -8.2736 H   0  0  0  0  0  0  0  0  0  0  0  0
   12.6038  -25.8545  -13.1084 H   0  0  0  0  0  0  0  0  0  0  0  0
   16.6342  -28.5741  -10.6600 H   0  0  0  0  0  0  0  0  0  0  0  0
  1  2  1  0  0  0  0
  1  3  2  0  0  0  0
  2  6  2  0  0  0  0
  3  7  1  0  0  0  0
  4  5  2  0  0  0  0
  4  8  1  0  0  0  0
  5 10  1  0  0  0  0
  6 11  1  0  0  0  0
  7 11  2  0  0  0  0
  8 12  2  0  0  0  0
  9 10  2  0  0  0  0
  9 12  1  0  0  0  0
 10 14  1  0  0  0  0
 11 17  1  0  0  0  0
 12 22  1  0  0  0  0
 13 14  2  0  0  0  0
 13 15  1  0  0  0  0
 14 20  1  0  0  0  0
 15 16  1  0  0  0  0
 15 18  2  0  0  0  0
 16 19  2  0  0  0  0
 16 21  1  0  0  0  0
 17 22  1  0  0  0  0
  1 23  1  0  0  0  0
  2 24  1  0  0  0  0
  3 25  1  0  0  0  0
  4 26  1  0  0  0  0
  5 27  1  0  0  0  0
  6 28  1  0  0  0  0
  7 29  1  0  0  0  0
  8 30  1  0  0  0  0
  9 31  1  0  0  0  0
 13 32  1  0  0  0  0
 17 33  1  0  0  0  0
 17 34  1  0  0  0  0
 20 35  1  0  0  0  0
 21 36  1  0  0  0  0
M  END
> <Hybrid2>
-5.632563591003418

> <Hybrid2>
-5.488524

$$$$
CHEMBL378395
  -OEChem-02152218483D

 55 59  0     0  0  0  0  0  0999 V2000
    7.2870  -30.6615   -8.0971 C   0  0  0  0  0  0  0  0  0  0  0  0
    6.2869  -31.2562   -8.8663 C   0  0  0  0  0  0  0  0  0  0  0  0
    4.9538  -25.4537   -6.8772 C   0  0  0  0  0  0  0  0  0  0  0  0
    5.5667  -26.4538   -7.6185 C   0  0  0  0  0  0  0  0  0  0  0  0
    7.5740  -29.3055   -8.2539 C   0  0  0  0  0  0  0  0  0  0  0  0
    5.5738  -30.4950   -9.7924 C   0  0  0  0  0  0  0  0  0  0  0  0
   13.0240  -26.3010  -12.1119 C   0  0  0  0  0  0  0  0  0  0  0  0
   12.3676  -28.6134  -11.8686 C   0  0  0  0  0  0  0  0  0  0  0  0
   14.2715  -26.5973  -11.5629 C   0  0  0  0  0  0  0  0  0  0  0  0
   13.6152  -28.9097  -11.3197 C   0  0  0  0  0  0  0  0  0  0  0  0
    5.3500  -24.1516   -7.1075 C   0  0  0  0  0  0  0  0  0  0  0  0
    6.5502  -26.1313   -8.5616 C   0  0  0  0  0  0  0  0  0  0  0  0
    6.8609  -28.5442   -9.1800 C   0  0  0  0  0  0  0  0  0  0  0  0
    7.1820  -27.1347   -9.3219 C   0  0  0  0  0  0  0  0  0  0  0  0
    8.4694  -25.4203  -10.3922 C   0  0  0  0  0  0  0  0  0  0  0  0
    5.8608  -29.1389   -9.9492 C   0  0  0  0  0  0  0  0  0  0  0  0
    8.1439  -26.7623  -10.2373 C   0  0  0  0  0  0  0  0  0  0  0  0
   12.0720  -27.3090  -12.2647 C   0  0  0  0  0  0  0  0  0  0  0  0
    6.8898  -24.7592   -8.7265 C   0  0  0  0  0  0  0  0  0  0  0  0
    7.8649  -24.4158   -9.6588 C   0  0  0  0  0  0  0  0  0  0  0  0
   14.5672  -27.9017  -11.1669 C   0  0  0  0  0  0  0  0  0  0  0  0
    9.5103  -25.3127  -11.4208 C   0  0  0  0  0  0  0  0  0  0  0  0
    5.0913  -28.3799  -10.9286 C   0  0  0  0  0  0  0  0  0  0  0  0
    8.9549  -27.6087  -11.1566 C   0  0  0  0  0  0  0  0  0  0  0  0
    1.4645  -27.8213  -11.0468 C   0  0  0  0  0  0  0  0  0  0  0  0
   10.7292  -26.9909  -12.8562 C   0  0  0  0  0  0  0  0  0  0  0  0
    2.8928  -27.6866  -11.5300 C   0  0  0  0  0  0  0  0  0  0  0  0
    6.2943  -23.7916   -8.0067 N   0  0  0  0  0  0  0  0  0  0  0  0
    9.7675  -26.6121  -11.8437 N   0  0  0  0  0  0  0  0  0  0  0  0
   10.0112  -24.2663  -11.7898 O   0  0  0  0  0  0  0  0  0  0  0  0
    5.5842  -27.7952  -11.8993 O   0  0  0  0  0  0  0  0  0  0  0  0
    8.2161  -23.1141   -9.8449 O   0  0  0  0  0  0  0  0  0  0  0  0
    3.7562  -28.3986  -10.6371 O   0  0  0  0  0  0  0  0  0  0  0  0
   15.7662  -28.1870  -10.6422 F   0  0  0  0  0  0  0  0  0  0  0  0
    7.8419  -31.2544   -7.3759 H   0  0  0  0  0  0  0  0  0  0  0  0
    6.0631  -32.3119   -8.7437 H   0  0  0  0  0  0  0  0  0  0  0  0
    4.1912  -25.6872   -6.1435 H   0  0  0  0  0  0  0  0  0  0  0  0
    5.2557  -27.4794   -7.4365 H   0  0  0  0  0  0  0  0  0  0  0  0
    8.3569  -28.8579   -7.6461 H   0  0  0  0  0  0  0  0  0  0  0  0
    4.7966  -30.9705  -10.3854 H   0  0  0  0  0  0  0  0  0  0  0  0
   12.8025  -25.2816  -12.4168 H   0  0  0  0  0  0  0  0  0  0  0  0
   11.6322  -29.4053  -11.9841 H   0  0  0  0  0  0  0  0  0  0  0  0
   15.0130  -25.8129  -11.4446 H   0  0  0  0  0  0  0  0  0  0  0  0
   13.8456  -29.9250  -11.0108 H   0  0  0  0  0  0  0  0  0  0  0  0
    4.9033  -23.3300   -6.5568 H   0  0  0  0  0  0  0  0  0  0  0  0
    9.6136  -28.2944  -10.6162 H   0  0  0  0  0  0  0  0  0  0  0  0
    8.3369  -28.1327  -11.8914 H   0  0  0  0  0  0  0  0  0  0  0  0
    1.1568  -28.8705  -11.0263 H   0  0  0  0  0  0  0  0  0  0  0  0
    1.3558  -27.4013  -10.0415 H   0  0  0  0  0  0  0  0  0  0  0  0
    0.7825  -27.2659  -11.6992 H   0  0  0  0  0  0  0  0  0  0  0  0
   10.8083  -26.1652  -13.5718 H   0  0  0  0  0  0  0  0  0  0  0  0
   10.3240  -27.8524  -13.3972 H   0  0  0  0  0  0  0  0  0  0  0  0
    3.1942  -26.6350  -11.5482 H   0  0  0  0  0  0  0  0  0  0  0  0
    2.9997  -28.1075  -12.5342 H   0  0  0  0  0  0  0  0  0  0  0  0
    8.9044  -23.0454  -10.5256 H   0  0  0  0  0  0  0  0  0  0  0  0
  1  2  1  0  0  0  0
  1  5  2  0  0  0  0
  2  6  2  0  0  0  0
  3  4  2  0  0  0  0
  3 11  1  0  0  0  0
  4 12  1  0  0  0  0
  5 13  1  0  0  0  0
  6 16  1  0  0  0  0
  7  9  2  0  0  0  0
  7 18  1  0  0  0  0
  8 10  1  0  0  0  0
  8 18  2  0  0  0  0
  9 21  1  0  0  0  0
 10 21  2  0  0  0  0
 11 28  2  0  0  0  0
 12 14  2  0  0  0  0
 12 19  1  0  0  0  0
 13 14  1  0  0  0  0
 13 16  2  0  0  0  0
 14 17  1  0  0  0  0
 15 17  2  0  0  0  0
 15 20  1  0  0  0  0
 15 22  1  0  0  0  0
 16 23  1  0  0  0  0
 17 24  1  0  0  0  0
 18 26  1  0  0  0  0
 19 20  2  0  0  0  0
 19 28  1  0  0  0  0
 20 32  1  0  0  0  0
 21 34  1  0  0  0  0
 22 29  1  0  0  0  0
 22 30  2  0  0  0  0
 23 31  2  0  0  0  0
 23 33  1  0  0  0  0
 24 29  1  0  0  0  0
 25 27  1  0  0  0  0
 26 29  1  0  0  0  0
 27 33  1  0  0  0  0
  1 35  1  0  0  0  0
  2 36  1  0  0  0  0
  3 37  1  0  0  0  0
  4 38  1  0  0  0  0
  5 39  1  0  0  0  0
  6 40  1  0  0  0  0
  7 41  1  0  0  0  0
  8 42  1  0  0  0  0
  9 43  1  0  0  0  0
 10 44  1  0  0  0  0
 11 45  1  0  0  0  0
 24 46  1  0  0  0  0
 24 47  1  0  0  0  0
 25 48  1  0  0  0  0
 25 49  1  0  0  0  0
 25 50  1  0  0  0  0
 26 51  1  0  0  0  0
 26 52  1  0  0  0  0
 27 53  1  0  0  0  0
 27 54  1  0  0  0  0
 32 55  1  0  0  0  0
M  END
> <Hybrid2>
-1.1800649166107178

> <Hybrid2>
-1.180065

$$$$
CHEMBL378395
  -OEChem-02152218483D

 55 59  0     0  0  0  0  0  0999 V2000
    9.0215  -30.4138   -7.6634 C   0  0  0  0  0  0  0  0  0  0  0  0
    8.1965  -31.2745   -8.3873 C   0  0  0  0  0  0  0  0  0  0  0  0
    5.7221  -25.6180   -7.2545 C   0  0  0  0  0  0  0  0  0  0  0  0
    6.5511  -26.5715   -7.8279 C   0  0  0  0  0  0  0  0  0  0  0  0
    9.0720  -29.0583   -7.9888 C   0  0  0  0  0  0  0  0  0  0  0  0
    7.4220  -30.7798   -9.4367 C   0  0  0  0  0  0  0  0  0  0  0  0
   14.1424  -25.5996  -11.9815 C   0  0  0  0  0  0  0  0  0  0  0  0
   13.8940  -27.9450  -11.4576 C   0  0  0  0  0  0  0  0  0  0  0  0
   15.3837  -25.5889  -11.3454 C   0  0  0  0  0  0  0  0  0  0  0  0
   15.1354  -27.9344  -10.8215 C   0  0  0  0  0  0  0  0  0  0  0  0
    5.8943  -24.3039   -7.6407 C   0  0  0  0  0  0  0  0  0  0  0  0
    7.5216  -26.1922   -8.7634 C   0  0  0  0  0  0  0  0  0  0  0  0
    8.2976  -28.5636   -9.0381 C   0  0  0  0  0  0  0  0  0  0  0  0
    8.3709  -27.1478   -9.3545 C   0  0  0  0  0  0  0  0  0  0  0  0
    9.4002  -25.3712  -10.5900 C   0  0  0  0  0  0  0  0  0  0  0  0
    7.4725  -29.4244   -9.7621 C   0  0  0  0  0  0  0  0  0  0  0  0
    9.3096  -26.7205  -10.2701 C   0  0  0  0  0  0  0  0  0  0  0  0
   13.3975  -26.7776  -12.0375 C   0  0  0  0  0  0  0  0  0  0  0  0
    7.6214  -24.8123   -9.0967 C   0  0  0  0  0  0  0  0  0  0  0  0
    8.5791  -24.4129  -10.0246 C   0  0  0  0  0  0  0  0  0  0  0  0
   15.8803  -26.7563  -10.7654 C   0  0  0  0  0  0  0  0  0  0  0  0
   10.4710  -25.2014  -11.5788 C   0  0  0  0  0  0  0  0  0  0  0  0
    6.6466  -28.9490  -10.8662 C   0  0  0  0  0  0  0  0  0  0  0  0
   10.3174  -27.5096  -11.0322 C   0  0  0  0  0  0  0  0  0  0  0  0
    2.9942  -29.0913  -11.2119 C   0  0  0  0  0  0  0  0  0  0  0  0
   12.0617  -26.7899  -12.7227 C   0  0  0  0  0  0  0  0  0  0  0  0
    4.4044  -28.7555  -11.6479 C   0  0  0  0  0  0  0  0  0  0  0  0
    6.8167  -23.8899   -8.5394 N   0  0  0  0  0  0  0  0  0  0  0  0
   10.9831  -26.4730  -11.8119 N   0  0  0  0  0  0  0  0  0  0  0  0
   10.8007  -24.1345  -12.0636 O   0  0  0  0  0  0  0  0  0  0  0  0
    7.0906  -28.4084  -11.8850 O   0  0  0  0  0  0  0  0  0  0  0  0
    8.7043  -23.1021  -10.3689 O   0  0  0  0  0  0  0  0  0  0  0  0
    5.3199  -29.1783  -10.6317 O   0  0  0  0  0  0  0  0  0  0  0  0
   17.0735  -26.7469  -10.1569 F   0  0  0  0  0  0  0  0  0  0  0  0
    9.6243  -30.7991   -6.8462 H   0  0  0  0  0  0  0  0  0  0  0  0
    8.1569  -32.3298   -8.1335 H   0  0  0  0  0  0  0  0  0  0  0  0
    4.9665  -25.8956   -6.5289 H   0  0  0  0  0  0  0  0  0  0  0  0
    6.4165  -27.6062   -7.5231 H   0  0  0  0  0  0  0  0  0  0  0  0
    9.7207  -28.4013   -7.4141 H   0  0  0  0  0  0  0  0  0  0  0  0
    6.7830  -31.4612   -9.9928 H   0  0  0  0  0  0  0  0  0  0  0  0
   13.7635  -24.6849  -12.4298 H   0  0  0  0  0  0  0  0  0  0  0  0
   13.3209  -28.8676  -11.4966 H   0  0  0  0  0  0  0  0  0  0  0  0
   15.9640  -24.6722  -11.3022 H   0  0  0  0  0  0  0  0  0  0  0  0
   15.5221  -28.8429  -10.3695 H   0  0  0  0  0  0  0  0  0  0  0  0
    5.2729  -23.5174   -7.2249 H   0  0  0  0  0  0  0  0  0  0  0  0
   11.0505  -27.9887  -10.3771 H   0  0  0  0  0  0  0  0  0  0  0  0
    9.8527  -28.2262  -11.7153 H   0  0  0  0  0  0  0  0  0  0  0  0
    2.8777  -30.1685  -11.0636 H   0  0  0  0  0  0  0  0  0  0  0  0
    2.7462  -28.5769  -10.2777 H   0  0  0  0  0  0  0  0  0  0  0  0
    2.2688  -28.7574  -11.9613 H   0  0  0  0  0  0  0  0  0  0  0  0
   12.0396  -26.0595  -13.5388 H   0  0  0  0  0  0  0  0  0  0  0  0
   11.8532  -27.7722  -13.1597 H   0  0  0  0  0  0  0  0  0  0  0  0
    4.5142  -27.6768  -11.7945 H   0  0  0  0  0  0  0  0  0  0  0  0
    4.6509  -29.2708  -12.5810 H   0  0  0  0  0  0  0  0  0  0  0  0
    9.4129  -22.9922  -11.0229 H   0  0  0  0  0  0  0  0  0  0  0  0
  1  2  1  0  0  0  0
  1  5  2  0  0  0  0
  2  6  2  0  0  0  0
  3  4  2  0  0  0  0
  3 11  1  0  0  0  0
  4 12  1  0  0  0  0
  5 13  1  0  0  0  0
  6 16  1  0  0  0  0
  7  9  2  0  0  0  0
  7 18  1  0  0  0  0
  8 10  1  0  0  0  0
  8 18  2  0  0  0  0
  9 21  1  0  0  0  0
 10 21  2  0  0  0  0
 11 28  2  0  0  0  0
 12 14  2  0  0  0  0
 12 19  1  0  0  0  0
 13 14  1  0  0  0  0
 13 16  2  0  0  0  0
 14 17  1  0  0  0  0
 15 17  2  0  0  0  0
 15 20  1  0  0  0  0
 15 22  1  0  0  0  0
 16 23  1  0  0  0  0
 17 24  1  0  0  0  0
 18 26  1  0  0  0  0
 19 20  2  0  0  0  0
 19 28  1  0  0  0  0
 20 32  1  0  0  0  0
 21 34  1  0  0  0  0
 22 29  1  0  0  0  0
 22 30  2  0  0  0  0
 23 31  2  0  0  0  0
 23 33  1  0  0  0  0
 24 29  1  0  0  0  0
 25 27  1  0  0  0  0
 26 29  1  0  0  0  0
 27 33  1  0  0  0  0
  1 35  1  0  0  0  0
  2 36  1  0  0  0  0
  3 37  1  0  0  0  0
  4 38  1  0  0  0  0
  5 39  1  0  0  0  0
  6 40  1  0  0  0  0
  7 41  1  0  0  0  0
  8 42  1  0  0  0  0
  9 43  1  0  0  0  0
 10 44  1  0  0  0  0
 11 45  1  0  0  0  0
 24 46  1  0  0  0  0
 24 47  1  0  0  0  0
 25 48  1  0  0  0  0
 25 49  1  0  0  0  0
 25 50  1  0  0  0  0
 26 51  1  0  0  0  0
 26 52  1  0  0  0  0
 27 53  1  0  0  0  0
 27 54  1  0  0  0  0
 32 55  1  0  0  0  0
M  END
> <Hybrid2>
-1.1800649166107178

> <Hybrid2>
-0.503375

$$$$
CHEMBL379974
  -OEChem-02152218483D

 52 56  0     0  0  0  0  0  0999 V2000
   14.3869  -27.3787  -11.6809 C   0  0  0  0  0  0  0  0  0  0  0  0
   13.0974  -27.2897  -12.1858 C   0  0  0  0  0  0  0  0  0  0  0  0
    4.2285  -27.3395   -9.4121 C   0  0  0  0  0  0  0  0  0  0  0  0
    6.2900  -28.2208   -8.5119 C   0  0  0  0  0  0  0  0  0  0  0  0
    3.5673  -28.5116   -9.0456 C   0  0  0  0  0  0  0  0  0  0  0  0
    5.6288  -29.3930   -8.1453 C   0  0  0  0  0  0  0  0  0  0  0  0
   14.5594  -27.1747  -10.3267 C   0  0  0  0  0  0  0  0  0  0  0  0
   12.0237  -27.0019  -11.3339 C   0  0  0  0  0  0  0  0  0  0  0  0
    9.9695  -26.4362   -9.6114 C   0  0  0  0  0  0  0  0  0  0  0  0
    9.6656  -26.6219  -10.9619 C   0  0  0  0  0  0  0  0  0  0  0  0
    5.5899  -27.1941   -9.1454 C   0  0  0  0  0  0  0  0  0  0  0  0
   12.3038  -26.8083   -9.9549 C   0  0  0  0  0  0  0  0  0  0  0  0
   10.7070  -26.9079  -11.8302 C   0  0  0  0  0  0  0  0  0  0  0  0
   11.2509  -26.5220   -9.0940 C   0  0  0  0  0  0  0  0  0  0  0  0
    4.2674  -29.5384   -8.4122 C   0  0  0  0  0  0  0  0  0  0  0  0
    8.7141  -26.1468   -8.8906 C   0  0  0  0  0  0  0  0  0  0  0  0
    7.6430  -25.8268  -12.4303 C   0  0  0  0  0  0  0  0  0  0  0  0
    7.4457  -27.2974  -12.1842 C   0  0  0  0  0  0  0  0  0  0  0  0
    8.1930  -26.4607  -11.1806 C   0  0  0  0  0  0  0  0  0  0  0  0
   12.7167  -26.4717  -15.7047 C   0  0  0  0  0  0  0  0  0  0  0  0
   12.6252  -24.2481  -14.6533 C   0  0  0  0  0  0  0  0  0  0  0  0
    6.3021  -25.9323   -9.5390 C   0  0  0  0  0  0  0  0  0  0  0  0
   13.5541  -26.8948   -9.4662 N   0  0  0  0  0  0  0  0  0  0  0  0
    7.6953  -26.1701   -9.8443 N   0  0  0  0  0  0  0  0  0  0  0  0
   12.1567  -25.6580  -14.5932 N   0  0  0  0  0  0  0  0  0  0  0  0
    8.6424  -25.9361   -7.6932 O   0  0  0  0  0  0  0  0  0  0  0  0
    9.8342  -26.3695  -15.4760 O   0  0  0  0  0  0  0  0  0  0  0  0
    9.9726  -24.6786  -13.6186 O   0  0  0  0  0  0  0  0  0  0  0  0
   11.4770  -26.3296   -7.7656 O   0  0  0  0  0  0  0  0  0  0  0  0
   10.4538  -27.0964  -13.1568 O   0  0  0  0  0  0  0  0  0  0  0  0
    3.6319  -30.6630   -8.0577 F   0  0  0  0  0  0  0  0  0  0  0  0
   10.4660  -25.8845  -14.2611 S   0  0  0  0  0  0  0  0  0  0  0  0
   15.2280  -27.6004  -12.3272 H   0  0  0  0  0  0  0  0  0  0  0  0
   12.9493  -27.4485  -13.2513 H   0  0  0  0  0  0  0  0  0  0  0  0
    3.6748  -26.5453   -9.9060 H   0  0  0  0  0  0  0  0  0  0  0  0
    7.3509  -28.1164   -8.2997 H   0  0  0  0  0  0  0  0  0  0  0  0
    2.5074  -28.6247   -9.2526 H   0  0  0  0  0  0  0  0  0  0  0  0
    6.1736  -30.1928   -7.6525 H   0  0  0  0  0  0  0  0  0  0  0  0
   15.5456  -27.2323   -9.8776 H   0  0  0  0  0  0  0  0  0  0  0  0
    8.3215  -25.5318  -13.2211 H   0  0  0  0  0  0  0  0  0  0  0  0
    6.7719  -25.1873  -12.3550 H   0  0  0  0  0  0  0  0  0  0  0  0
    6.4437  -27.6331  -11.9456 H   0  0  0  0  0  0  0  0  0  0  0  0
    7.9910  -27.9936  -12.8093 H   0  0  0  0  0  0  0  0  0  0  0  0
   12.3478  -27.5050  -15.6254 H   0  0  0  0  0  0  0  0  0  0  0  0
   12.4018  -26.0430  -16.6676 H   0  0  0  0  0  0  0  0  0  0  0  0
   13.8150  -26.4690  -15.6438 H   0  0  0  0  0  0  0  0  0  0  0  0
   12.1905  -23.6807  -13.8172 H   0  0  0  0  0  0  0  0  0  0  0  0
   13.7226  -24.2231  -14.5819 H   0  0  0  0  0  0  0  0  0  0  0  0
   12.3094  -23.7972  -15.6057 H   0  0  0  0  0  0  0  0  0  0  0  0
    5.8347  -25.4848  -10.4229 H   0  0  0  0  0  0  0  0  0  0  0  0
    6.2575  -25.1891   -8.7360 H   0  0  0  0  0  0  0  0  0  0  0  0
   10.6432  -26.1403   -7.3065 H   0  0  0  0  0  0  0  0  0  0  0  0
  1  2  2  0  0  0  0
  1  7  1  0  0  0  0
  2  8  1  0  0  0  0
  3  5  2  0  0  0  0
  3 11  1  0  0  0  0
  4  6  1  0  0  0  0
  4 11  2  0  0  0  0
  5 15  1  0  0  0  0
  6 15  2  0  0  0  0
  7 23  2  0  0  0  0
  8 12  1  0  0  0  0
  8 13  2  0  0  0  0
  9 10  2  0  0  0  0
  9 14  1  0  0  0  0
  9 16  1  0  0  0  0
 10 13  1  0  0  0  0
 10 19  1  0  0  0  0
 11 22  1  0  0  0  0
 12 14  2  0  0  0  0
 12 23  1  0  0  0  0
 13 30  1  0  0  0  0
 14 29  1  0  0  0  0
 15 31  1  0  0  0  0
 16 24  1  0  0  0  0
 16 26  2  0  0  0  0
 17 18  1  0  0  0  0
 17 19  1  0  0  0  0
 18 19  1  0  0  0  0
 19 24  1  0  0  0  0
 20 25  1  0  0  0  0
 21 25  1  0  0  0  0
 22 24  1  0  0  0  0
 25 32  1  0  0  0  0
 27 32  2  0  0  0  0
 28 32  2  0  0  0  0
 30 32  1  0  0  0  0
  1 33  1  0  0  0  0
  2 34  1  0  0  0  0
  3 35  1  0  0  0  0
  4 36  1  0  0  0  0
  5 37  1  0  0  0  0
  6 38  1  0  0  0  0
  7 39  1  0  0  0  0
 17 40  1  0  0  0  0
 17 41  1  0  0  0  0
 18 42  1  0  0  0  0
 18 43  1  0  0  0  0
 20 44  1  0  0  0  0
 20 45  1  0  0  0  0
 20 46  1  0  0  0  0
 21 47  1  0  0  0  0
 21 48  1  0  0  0  0
 21 49  1  0  0  0  0
 22 50  1  0  0  0  0
 22 51  1  0  0  0  0
 29 52  1  0  0  0  0
M  END
> <Hybrid2>
-4.348607063293457

> <Hybrid2>
-4.348607

$$$$
CHEMBL379974
  -OEChem-02152218483D

 52 56  0     0  0  0  0  0  0999 V2000
   16.0072  -27.7014  -12.6283 C   0  0  0  0  0  0  0  0  0  0  0  0
   14.7029  -27.3219  -12.9116 C   0  0  0  0  0  0  0  0  0  0  0  0
    6.1688  -27.4772   -9.2375 C   0  0  0  0  0  0  0  0  0  0  0  0
    8.1646  -28.8065   -8.9427 C   0  0  0  0  0  0  0  0  0  0  0  0
    5.3922  -28.6353   -9.2017 C   0  0  0  0  0  0  0  0  0  0  0  0
    7.3880  -29.9646   -8.9068 C   0  0  0  0  0  0  0  0  0  0  0  0
   16.3181  -27.9929  -11.3155 C   0  0  0  0  0  0  0  0  0  0  0  0
   13.7517  -27.2437  -11.8867 C   0  0  0  0  0  0  0  0  0  0  0  0
   11.9416  -27.1118   -9.8341 C   0  0  0  0  0  0  0  0  0  0  0  0
   11.5038  -26.7919  -11.1212 C   0  0  0  0  0  0  0  0  0  0  0  0
    7.5551  -27.5628   -9.1081 C   0  0  0  0  0  0  0  0  0  0  0  0
   14.1695  -27.5637  -10.5674 C   0  0  0  0  0  0  0  0  0  0  0  0
   12.4219  -26.8597  -12.1569 C   0  0  0  0  0  0  0  0  0  0  0  0
   13.2394  -27.4918   -9.5370 C   0  0  0  0  0  0  0  0  0  0  0  0
    6.0018  -29.8790   -9.0363 C   0  0  0  0  0  0  0  0  0  0  0  0
   10.8002  -26.9697   -8.9088 C   0  0  0  0  0  0  0  0  0  0  0  0
    9.4873  -25.3516  -11.9808 C   0  0  0  0  0  0  0  0  0  0  0  0
    9.1195  -26.7913  -12.2140 C   0  0  0  0  0  0  0  0  0  0  0  0
   10.0520  -26.4259  -11.0902 C   0  0  0  0  0  0  0  0  0  0  0  0
   14.1392  -25.3116  -15.8845 C   0  0  0  0  0  0  0  0  0  0  0  0
   14.4297  -23.5871  -14.1524 C   0  0  0  0  0  0  0  0  0  0  0  0
    8.3916  -26.3166   -9.1459 C   0  0  0  0  0  0  0  0  0  0  0  0
   15.4341  -27.9315  -10.2935 N   0  0  0  0  0  0  0  0  0  0  0  0
    9.7108  -26.5665   -9.6826 N   0  0  0  0  0  0  0  0  0  0  0  0
   13.7865  -24.8802  -14.5058 N   0  0  0  0  0  0  0  0  0  0  0  0
   10.8575  -27.1776   -7.7101 O   0  0  0  0  0  0  0  0  0  0  0  0
   11.3247  -25.0201  -15.2803 O   0  0  0  0  0  0  0  0  0  0  0  0
   11.8397  -24.0923  -12.9995 O   0  0  0  0  0  0  0  0  0  0  0  0
   13.5995  -27.7904   -8.2587 O   0  0  0  0  0  0  0  0  0  0  0  0
   12.0357  -26.5557  -13.4289 O   0  0  0  0  0  0  0  0  0  0  0  0
    5.2558  -30.9909   -8.9991 F   0  0  0  0  0  0  0  0  0  0  0  0
   12.1146  -25.0450  -14.0613 S   0  0  0  0  0  0  0  0  0  0  0  0
   16.7546  -27.7665  -13.4103 H   0  0  0  0  0  0  0  0  0  0  0  0
   14.4463  -27.0898  -13.9425 H   0  0  0  0  0  0  0  0  0  0  0  0
    5.6849  -26.5128   -9.3676 H   0  0  0  0  0  0  0  0  0  0  0  0
    9.2440  -28.8829   -8.8408 H   0  0  0  0  0  0  0  0  0  0  0  0
    4.3130  -28.5688   -9.3017 H   0  0  0  0  0  0  0  0  0  0  0  0
    7.8622  -30.9330   -8.7785 H   0  0  0  0  0  0  0  0  0  0  0  0
   17.3223  -28.2951  -11.0365 H   0  0  0  0  0  0  0  0  0  0  0  0
   10.1300  -24.8688  -12.7065 H   0  0  0  0  0  0  0  0  0  0  0  0
    8.7173  -24.6971  -11.5906 H   0  0  0  0  0  0  0  0  0  0  0  0
    8.1056  -27.0914  -11.9782 H   0  0  0  0  0  0  0  0  0  0  0  0
    9.5141  -27.2786  -13.0969 H   0  0  0  0  0  0  0  0  0  0  0  0
   13.6455  -26.2689  -16.1073 H   0  0  0  0  0  0  0  0  0  0  0  0
   13.8039  -24.5500  -16.6039 H   0  0  0  0  0  0  0  0  0  0  0  0
   15.2296  -25.4346  -15.9623 H   0  0  0  0  0  0  0  0  0  0  0  0
   14.1451  -23.3031  -13.1285 H   0  0  0  0  0  0  0  0  0  0  0  0
   15.5229  -23.6929  -14.2129 H   0  0  0  0  0  0  0  0  0  0  0  0
   14.0973  -22.8083  -14.8545 H   0  0  0  0  0  0  0  0  0  0  0  0
    7.9146  -25.5501   -9.7664 H   0  0  0  0  0  0  0  0  0  0  0  0
    8.5127  -25.8941   -8.1429 H   0  0  0  0  0  0  0  0  0  0  0  0
   12.8394  -27.6920   -7.6636 H   0  0  0  0  0  0  0  0  0  0  0  0
  1  2  2  0  0  0  0
  1  7  1  0  0  0  0
  2  8  1  0  0  0  0
  3  5  2  0  0  0  0
  3 11  1  0  0  0  0
  4  6  1  0  0  0  0
  4 11  2  0  0  0  0
  5 15  1  0  0  0  0
  6 15  2  0  0  0  0
  7 23  2  0  0  0  0
  8 12  1  0  0  0  0
  8 13  2  0  0  0  0
  9 10  2  0  0  0  0
  9 14  1  0  0  0  0
  9 16  1  0  0  0  0
 10 13  1  0  0  0  0
 10 19  1  0  0  0  0
 11 22  1  0  0  0  0
 12 14  2  0  0  0  0
 12 23  1  0  0  0  0
 13 30  1  0  0  0  0
 14 29  1  0  0  0  0
 15 31  1  0  0  0  0
 16 24  1  0  0  0  0
 16 26  2  0  0  0  0
 17 18  1  0  0  0  0
 17 19  1  0  0  0  0
 18 19  1  0  0  0  0
 19 24  1  0  0  0  0
 20 25  1  0  0  0  0
 21 25  1  0  0  0  0
 22 24  1  0  0  0  0
 25 32  1  0  0  0  0
 27 32  2  0  0  0  0
 28 32  2  0  0  0  0
 30 32  1  0  0  0  0
  1 33  1  0  0  0  0
  2 34  1  0  0  0  0
  3 35  1  0  0  0  0
  4 36  1  0  0  0  0
  5 37  1  0  0  0  0
  6 38  1  0  0  0  0
  7 39  1  0  0  0  0
 17 40  1  0  0  0  0
 17 41  1  0  0  0  0
 18 42  1  0  0  0  0
 18 43  1  0  0  0  0
 20 44  1  0  0  0  0
 20 45  1  0  0  0  0
 20 46  1  0  0  0  0
 21 47  1  0  0  0  0
 21 48  1  0  0  0  0
 21 49  1  0  0  0  0
 22 50  1  0  0  0  0
 22 51  1  0  0  0  0
 29 52  1  0  0  0  0
M  END
> <Hybrid2>
-4.348607063293457

> <Hybrid2>
-4.028125

$$$$
CHEMBL1159988
  -OEChem-02152218483D

 33 34  0     1  0  0  0  0  0999 V2000
    9.9826  -26.7519   -8.9358 C   0  0  0  0  0  0  0  0  0  0  0  0
   11.2600  -26.6187   -9.4840 C   0  0  0  0  0  0  0  0  0  0  0  0
    8.9598  -26.3400  -11.1044 C   0  0  0  0  0  0  0  0  0  0  0  0
    8.8407  -26.6135   -9.7402 C   0  0  0  0  0  0  0  0  0  0  0  0
   11.3696  -26.3386  -10.8364 C   0  0  0  0  0  0  0  0  0  0  0  0
   10.2303  -26.2007  -11.6391 C   0  0  0  0  0  0  0  0  0  0  0  0
    6.8861  -27.9584   -9.0786 C   0  0  0  0  0  0  0  0  0  0  0  0
    7.5203  -26.7615   -9.1470 C   0  0  0  0  0  0  0  0  0  0  0  0
    7.4513  -29.2306   -9.5892 C   0  0  0  0  0  0  0  0  0  0  0  0
    6.5944  -30.4465   -9.4195 C   0  0  0  0  0  0  0  0  0  0  0  0
   12.0750  -25.5000  -12.9152 C   0  0  0  0  0  0  0  0  0  0  0  0
   12.6215  -26.1812  -11.6439 C   0  0  2  0  0  0  0  0  0  0  0  0
   10.6034  -25.9370  -13.0656 C   0  0  1  0  0  0  0  0  0  0  0  0
   14.9226  -28.1345  -10.5285 N   0  0  0  0  0  0  0  0  0  0  0  0
   10.2040  -26.6995  -16.1667 N   0  0  0  0  0  0  0  0  0  0  0  0
   13.2231  -27.4671  -11.9952 N   0  0  0  0  0  0  0  0  0  0  0  0
   10.5272  -27.1429  -13.8895 N   0  0  0  0  0  0  0  0  0  0  0  0
   14.1326  -27.8198  -11.2066 N   0  0  0  0  0  0  0  0  0  0  0  0
   10.3541  -26.9000  -15.1082 N   0  0  0  0  0  0  0  0  0  0  0  0
    8.5464  -29.3761  -10.1051 O   0  0  0  0  0  0  0  0  0  0  0  0
    5.5012  -30.3992   -8.8940 O   0  0  0  0  0  0  0  0  0  0  0  0
    6.9607  -25.5803   -8.6797 O   0  0  0  0  0  0  0  0  0  0  0  0
    7.2390  -31.5195   -9.8969 O   0  0  0  0  0  0  0  0  0  0  0  0
    9.8864  -26.9688   -7.8740 H   0  0  0  0  0  0  0  0  0  0  0  0
   12.1410  -26.7340   -8.8617 H   0  0  0  0  0  0  0  0  0  0  0  0
    8.0841  -26.2385  -11.7387 H   0  0  0  0  0  0  0  0  0  0  0  0
    5.9038  -28.0305   -8.6196 H   0  0  0  0  0  0  0  0  0  0  0  0
   12.0947  -24.4118  -12.7574 H   0  0  0  0  0  0  0  0  0  0  0  0
   12.6777  -25.7096  -13.8060 H   0  0  0  0  0  0  0  0  0  0  0  0
   13.3537  -25.5460  -11.1467 H   0  0  0  0  0  0  0  0  0  0  0  0
   10.0019  -25.1344  -13.5048 H   0  0  0  0  0  0  0  0  0  0  0  0
    6.0957  -25.7636   -8.3061 H   0  0  0  0  0  0  0  0  0  0  0  0
    6.7211  -32.3449   -9.7840 H   0  0  0  0  0  0  0  0  0  0  0  0
  1  2  2  0  0  0  0
  1  4  1  0  0  0  0
  2  5  1  0  0  0  0
  3  4  2  0  0  0  0
  3  6  1  0  0  0  0
  4  8  1  0  0  0  0
  5  6  2  0  0  0  0
  5 12  1  0  0  0  0
  6 13  1  0  0  0  0
  7  8  2  0  0  0  0
  7  9  1  0  0  0  0
  8 22  1  0  0  0  0
  9 10  1  0  0  0  0
  9 20  2  0  0  0  0
 10 21  2  0  0  0  0
 10 23  1  0  0  0  0
 11 12  1  0  0  0  0
 11 13  1  0  0  0  0
 12 16  1  0  0  0  0
 13 17  1  0  0  0  0
 14 18  3  0  0  0  0
 15 19  3  0  0  0  0
 16 18  2  0  0  0  0
 17 19  2  0  0  0  0
  1 24  1  0  0  0  0
  2 25  1  0  0  0  0
  3 26  1  0  0  0  0
  7 27  1  0  0  0  0
 11 28  1  0  0  0  0
 11 29  1  0  0  0  0
 12 30  1  0  0  0  0
 13 31  1  0  0  0  0
 22 32  1  0  0  0  0
 23 33  1  0  0  0  0
M  END
> <Hybrid2>
-6.611886501312256

> <Hybrid2>
-6.611887

$$$$
CHEMBL1159988
  -OEChem-02152218483D

 33 34  0     1  0  0  0  0  0999 V2000
    9.5601  -26.6053   -8.2441 C   0  0  0  0  0  0  0  0  0  0  0  0
   10.8811  -26.6256   -8.6965 C   0  0  0  0  0  0  0  0  0  0  0  0
    8.7404  -26.2895  -10.5128 C   0  0  0  0  0  0  0  0  0  0  0  0
    8.4974  -26.4384   -9.1458 C   0  0  0  0  0  0  0  0  0  0  0  0
   11.1144  -26.4684  -10.0531 C   0  0  0  0  0  0  0  0  0  0  0  0
   10.0541  -26.3021  -10.9528 C   0  0  0  0  0  0  0  0  0  0  0  0
    6.3864  -27.5551   -8.5432 C   0  0  0  0  0  0  0  0  0  0  0  0
    7.1291  -26.4254   -8.6511 C   0  0  0  0  0  0  0  0  0  0  0  0
    6.8705  -28.9081   -8.9087 C   0  0  0  0  0  0  0  0  0  0  0  0
    5.8974  -30.0295   -8.7166 C   0  0  0  0  0  0  0  0  0  0  0  0
   12.0431  -25.8665  -12.1261 C   0  0  0  0  0  0  0  0  0  0  0  0
   12.4313  -26.4839  -10.7670 C   0  0  2  0  0  0  0  0  0  0  0  0
   10.5532  -26.1894  -12.3606 C   0  0  1  0  0  0  0  0  0  0  0  0
   15.2643  -27.9383  -11.2284 N   0  0  0  0  0  0  0  0  0  0  0  0
   11.3900  -27.3841  -15.2294 N   0  0  0  0  0  0  0  0  0  0  0  0
   12.9386  -27.8404  -10.9703 N   0  0  0  0  0  0  0  0  0  0  0  0
   10.4293  -27.4485  -13.0941 N   0  0  0  0  0  0  0  0  0  0  0  0
   14.1846  -27.8872  -11.1079 N   0  0  0  0  0  0  0  0  0  0  0  0
   10.9454  -27.4088  -14.2371 N   0  0  0  0  0  0  0  0  0  0  0  0
    7.9830  -29.1872   -9.3225 O   0  0  0  0  0  0  0  0  0  0  0  0
    4.7773  -29.8473   -8.2858 O   0  0  0  0  0  0  0  0  0  0  0  0
    6.6454  -25.1669   -8.3211 O   0  0  0  0  0  0  0  0  0  0  0  0
    6.4760  -31.1887   -9.0579 O   0  0  0  0  0  0  0  0  0  0  0  0
    9.3671  -26.7249   -7.1801 H   0  0  0  0  0  0  0  0  0  0  0  0
   11.7001  -26.7627   -7.9985 H   0  0  0  0  0  0  0  0  0  0  0  0
    7.9264  -26.1675  -11.2213 H   0  0  0  0  0  0  0  0  0  0  0  0
    5.3705  -27.5063   -8.1604 H   0  0  0  0  0  0  0  0  0  0  0  0
   12.1492  -24.7745  -12.0503 H   0  0  0  0  0  0  0  0  0  0  0  0
   12.6883  -26.1989  -12.9472 H   0  0  0  0  0  0  0  0  0  0  0  0
   13.1793  -25.8736  -10.2623 H   0  0  0  0  0  0  0  0  0  0  0  0
   10.0603  -25.3781  -12.9063 H   0  0  0  0  0  0  0  0  0  0  0  0
    5.7424  -25.2454   -8.0054 H   0  0  0  0  0  0  0  0  0  0  0  0
    5.8790  -31.9555   -8.9247 H   0  0  0  0  0  0  0  0  0  0  0  0
  1  2  2  0  0  0  0
  1  4  1  0  0  0  0
  2  5  1  0  0  0  0
  3  4  2  0  0  0  0
  3  6  1  0  0  0  0
  4  8  1  0  0  0  0
  5  6  2  0  0  0  0
  5 12  1  0  0  0  0
  6 13  1  0  0  0  0
  7  8  2  0  0  0  0
  7  9  1  0  0  0  0
  8 22  1  0  0  0  0
  9 10  1  0  0  0  0
  9 20  2  0  0  0  0
 10 21  2  0  0  0  0
 10 23  1  0  0  0  0
 11 12  1  0  0  0  0
 11 13  1  0  0  0  0
 12 16  1  0  0  0  0
 13 17  1  0  0  0  0
 14 18  3  0  0  0  0
 15 19  3  0  0  0  0
 16 18  2  0  0  0  0
 17 19  2  0  0  0  0
  1 24  1  0  0  0  0
  2 25  1  0  0  0  0
  3 26  1  0  0  0  0
  7 27  1  0  0  0  0
 11 28  1  0  0  0  0
 11 29  1  0  0  0  0
 12 30  1  0  0  0  0
 13 31  1  0  0  0  0
 22 32  1  0  0  0  0
 23 33  1  0  0  0  0
M  END
> <Hybrid2>
-6.611886501312256

> <Hybrid2>
-5.971548

$$$$
CHEMBL35842
  -OEChem-02152218483D

 43 46  0     0  0  0  0  0  0999 V2000
    6.7279  -30.7771   -7.9087 C   0  0  0  0  0  0  0  0  0  0  0  0
    7.7762  -30.4945   -8.7844 C   0  0  0  0  0  0  0  0  0  0  0  0
    5.5930  -29.9663   -7.8948 C   0  0  0  0  0  0  0  0  0  0  0  0
    7.2809  -24.0206   -9.0853 C   0  0  0  0  0  0  0  0  0  0  0  0
   13.1240  -27.3005  -15.5822 C   0  0  0  0  0  0  0  0  0  0  0  0
   13.4361  -27.6367  -14.2728 C   0  0  0  0  0  0  0  0  0  0  0  0
   13.0876  -27.3091  -11.8701 C   0  0  0  0  0  0  0  0  0  0  0  0
    8.6650  -23.9759   -9.2519 C   0  0  0  0  0  0  0  0  0  0  0  0
   12.4347  -26.6528  -10.8307 C   0  0  0  0  0  0  0  0  0  0  0  0
    7.6897  -29.4010   -9.6460 C   0  0  0  0  0  0  0  0  0  0  0  0
    5.5064  -28.8728   -8.7564 C   0  0  0  0  0  0  0  0  0  0  0  0
    6.5625  -25.1369   -9.5139 C   0  0  0  0  0  0  0  0  0  0  0  0
    8.6124  -26.1635  -10.2759 C   0  0  0  0  0  0  0  0  0  0  0  0
   12.1714  -26.3216  -15.7799 C   0  0  0  0  0  0  0  0  0  0  0  0
   12.7939  -26.9917  -13.2072 C   0  0  0  0  0  0  0  0  0  0  0  0
    9.3308  -25.0473   -9.8472 C   0  0  0  0  0  0  0  0  0  0  0  0
   11.4878  -25.6788  -11.1222 C   0  0  0  0  0  0  0  0  0  0  0  0
    6.5547  -28.5902   -9.6321 C   0  0  0  0  0  0  0  0  0  0  0  0
    7.2282  -26.2083  -10.1092 C   0  0  0  0  0  0  0  0  0  0  0  0
   11.8338  -26.0037  -13.5105 C   0  0  0  0  0  0  0  0  0  0  0  0
   11.1960  -25.3634  -12.4515 C   0  0  0  0  0  0  0  0  0  0  0  0
   10.8122  -24.9993  -10.0248 C   0  0  0  0  0  0  0  0  0  0  0  0
    6.4601  -27.4019  -10.5677 C   0  0  0  0  0  0  0  0  0  0  0  0
   11.5288  -25.6754  -14.7802 N   0  0  0  0  0  0  0  0  0  0  0  0
   11.4669  -24.3518   -9.1962 O   0  0  0  0  0  0  0  0  0  0  0  0
   10.2577  -24.4028  -12.7188 O   0  0  0  0  0  0  0  0  0  0  0  0
    6.7949  -31.6294   -7.2388 H   0  0  0  0  0  0  0  0  0  0  0  0
    8.6596  -31.1264   -8.7962 H   0  0  0  0  0  0  0  0  0  0  0  0
    4.7762  -30.1867   -7.2139 H   0  0  0  0  0  0  0  0  0  0  0  0
    6.7623  -23.1859   -8.6227 H   0  0  0  0  0  0  0  0  0  0  0  0
   13.6112  -27.7893  -16.4175 H   0  0  0  0  0  0  0  0  0  0  0  0
   14.1836  -28.4049  -14.0880 H   0  0  0  0  0  0  0  0  0  0  0  0
   13.8265  -28.0710  -11.6312 H   0  0  0  0  0  0  0  0  0  0  0  0
    9.2150  -23.1014   -8.9137 H   0  0  0  0  0  0  0  0  0  0  0  0
   12.6727  -26.9104   -9.8023 H   0  0  0  0  0  0  0  0  0  0  0  0
    8.5114  -29.1883  -10.3248 H   0  0  0  0  0  0  0  0  0  0  0  0
    4.6184  -28.2466   -8.7385 H   0  0  0  0  0  0  0  0  0  0  0  0
    5.4843  -25.1633   -9.3794 H   0  0  0  0  0  0  0  0  0  0  0  0
    9.1298  -26.9994  -10.7414 H   0  0  0  0  0  0  0  0  0  0  0  0
   11.8852  -26.0176  -16.7815 H   0  0  0  0  0  0  0  0  0  0  0  0
    6.7925  -27.7125  -11.5738 H   0  0  0  0  0  0  0  0  0  0  0  0
    5.3961  -27.1447  -10.7120 H   0  0  0  0  0  0  0  0  0  0  0  0
   10.1631  -24.2935  -13.6756 H   0  0  0  0  0  0  0  0  0  0  0  0
  1  2  1  0  0  0  0
  1  3  2  0  0  0  0
  2 10  2  0  0  0  0
  3 11  1  0  0  0  0
  4  8  2  0  0  0  0
  4 12  1  0  0  0  0
  5  6  2  0  0  0  0
  5 14  1  0  0  0  0
  6 15  1  0  0  0  0
  7  9  1  0  0  0  0
  7 15  2  0  0  0  0
  8 16  1  0  0  0  0
  9 17  2  0  0  0  0
 10 18  1  0  0  0  0
 11 18  2  0  0  0  0
 12 19  2  0  0  0  0
 13 16  2  0  0  0  0
 13 19  1  0  0  0  0
 14 24  2  0  0  0  0
 15 20  1  0  0  0  0
 16 22  1  0  0  0  0
 17 21  1  0  0  0  0
 17 22  1  0  0  0  0
 18 23  1  0  0  0  0
 19 23  1  0  0  0  0
 20 21  2  0  0  0  0
 20 24  1  0  0  0  0
 21 26  1  0  0  0  0
 22 25  2  0  0  0  0
  1 27  1  0  0  0  0
  2 28  1  0  0  0  0
  3 29  1  0  0  0  0
  4 30  1  0  0  0  0
  5 31  1  0  0  0  0
  6 32  1  0  0  0  0
  7 33  1  0  0  0  0
  8 34  1  0  0  0  0
  9 35  1  0  0  0  0
 10 36  1  0  0  0  0
 11 37  1  0  0  0  0
 12 38  1  0  0  0  0
 13 39  1  0  0  0  0
 14 40  1  0  0  0  0
 23 41  1  0  0  0  0
 23 42  1  0  0  0  0
 26 43  1  0  0  0  0
M  END
> <Hybrid2>
-5.825812816619873

> <Hybrid2>
-5.825813

$$$$
CHEMBL35842
  -OEChem-02152218483D

 43 46  0     0  0  0  0  0  0999 V2000
    7.2748  -31.3141   -7.7745 C   0  0  0  0  0  0  0  0  0  0  0  0
    7.8428  -30.5639   -8.8042 C   0  0  0  0  0  0  0  0  0  0  0  0
    6.0101  -30.9845   -7.2872 C   0  0  0  0  0  0  0  0  0  0  0  0
    5.2694  -24.7378   -7.5075 C   0  0  0  0  0  0  0  0  0  0  0  0
   13.1850  -27.2370  -12.6676 C   0  0  0  0  0  0  0  0  0  0  0  0
   12.7643  -27.3576  -11.3511 C   0  0  0  0  0  0  0  0  0  0  0  0
   11.2407  -26.6879   -9.5534 C   0  0  0  0  0  0  0  0  0  0  0  0
    6.4392  -24.1686   -8.0106 C   0  0  0  0  0  0  0  0  0  0  0  0
   10.1720  -25.9128   -9.1125 C   0  0  0  0  0  0  0  0  0  0  0  0
    7.1461  -29.4840   -9.3465 C   0  0  0  0  0  0  0  0  0  0  0  0
    5.3134  -29.9046   -7.8295 C   0  0  0  0  0  0  0  0  0  0  0  0
    4.8409  -25.9800   -7.9756 C   0  0  0  0  0  0  0  0  0  0  0  0
    6.7520  -26.0835   -9.4501 C   0  0  0  0  0  0  0  0  0  0  0  0
   12.5099  -26.3433  -13.4740 C   0  0  0  0  0  0  0  0  0  0  0  0
   11.6908  -26.5892  -10.8809 C   0  0  0  0  0  0  0  0  0  0  0  0
    7.1805  -24.8414   -8.9820 C   0  0  0  0  0  0  0  0  0  0  0  0
    9.5498  -25.0377   -9.9942 C   0  0  0  0  0  0  0  0  0  0  0  0
    5.8814  -29.1543   -8.8592 C   0  0  0  0  0  0  0  0  0  0  0  0
    5.5822  -26.6528   -8.9470 C   0  0  0  0  0  0  0  0  0  0  0  0
   11.0639  -25.7027  -11.7816 C   0  0  0  0  0  0  0  0  0  0  0  0
    9.9974  -24.9398  -11.3140 C   0  0  0  0  0  0  0  0  0  0  0  0
    8.4327  -24.2320   -9.5197 C   0  0  0  0  0  0  0  0  0  0  0  0
    5.1241  -27.9811   -9.4477 C   0  0  0  0  0  0  0  0  0  0  0  0
   11.4700  -25.5836  -13.0598 N   0  0  0  0  0  0  0  0  0  0  0  0
    8.4985  -22.9955   -9.5531 O   0  0  0  0  0  0  0  0  0  0  0  0
    9.3696  -24.0740  -12.1689 O   0  0  0  0  0  0  0  0  0  0  0  0
    7.8169  -32.1558   -7.3533 H   0  0  0  0  0  0  0  0  0  0  0  0
    8.8271  -30.8211   -9.1845 H   0  0  0  0  0  0  0  0  0  0  0  0
    5.5671  -31.5690   -6.4863 H   0  0  0  0  0  0  0  0  0  0  0  0
    4.6916  -24.2134   -6.7520 H   0  0  0  0  0  0  0  0  0  0  0  0
   14.0134  -27.8235  -13.0471 H   0  0  0  0  0  0  0  0  0  0  0  0
   13.2787  -28.0546  -10.6933 H   0  0  0  0  0  0  0  0  0  0  0  0
   11.7202  -27.3708   -8.8553 H   0  0  0  0  0  0  0  0  0  0  0  0
    6.7641  -23.2003   -7.6384 H   0  0  0  0  0  0  0  0  0  0  0  0
    9.8356  -26.0014   -8.0831 H   0  0  0  0  0  0  0  0  0  0  0  0
    7.5966  -28.9050  -10.1484 H   0  0  0  0  0  0  0  0  0  0  0  0
    4.3286  -29.6550   -7.4434 H   0  0  0  0  0  0  0  0  0  0  0  0
    3.9286  -26.4163   -7.5775 H   0  0  0  0  0  0  0  0  0  0  0  0
    7.3282  -26.6090  -10.2083 H   0  0  0  0  0  0  0  0  0  0  0  0
   12.7929  -26.2070  -14.5126 H   0  0  0  0  0  0  0  0  0  0  0  0
    5.1969  -28.0254  -10.5486 H   0  0  0  0  0  0  0  0  0  0  0  0
    4.0460  -28.1172   -9.2515 H   0  0  0  0  0  0  0  0  0  0  0  0
    9.7859  -24.1145  -13.0415 H   0  0  0  0  0  0  0  0  0  0  0  0
  1  2  1  0  0  0  0
  1  3  2  0  0  0  0
  2 10  2  0  0  0  0
  3 11  1  0  0  0  0
  4  8  2  0  0  0  0
  4 12  1  0  0  0  0
  5  6  2  0  0  0  0
  5 14  1  0  0  0  0
  6 15  1  0  0  0  0
  7  9  1  0  0  0  0
  7 15  2  0  0  0  0
  8 16  1  0  0  0  0
  9 17  2  0  0  0  0
 10 18  1  0  0  0  0
 11 18  2  0  0  0  0
 12 19  2  0  0  0  0
 13 16  2  0  0  0  0
 13 19  1  0  0  0  0
 14 24  2  0  0  0  0
 15 20  1  0  0  0  0
 16 22  1  0  0  0  0
 17 21  1  0  0  0  0
 17 22  1  0  0  0  0
 18 23  1  0  0  0  0
 19 23  1  0  0  0  0
 20 21  2  0  0  0  0
 20 24  1  0  0  0  0
 21 26  1  0  0  0  0
 22 25  2  0  0  0  0
  1 27  1  0  0  0  0
  2 28  1  0  0  0  0
  3 29  1  0  0  0  0
  4 30  1  0  0  0  0
  5 31  1  0  0  0  0
  6 32  1  0  0  0  0
  7 33  1  0  0  0  0
  8 34  1  0  0  0  0
  9 35  1  0  0  0  0
 10 36  1  0  0  0  0
 11 37  1  0  0  0  0
 12 38  1  0  0  0  0
 13 39  1  0  0  0  0
 14 40  1  0  0  0  0
 23 41  1  0  0  0  0
 23 42  1  0  0  0  0
 26 43  1  0  0  0  0
M  END
> <Hybrid2>
-5.825812816619873

> <Hybrid2>
-5.583157

$$$$
CHEMBL472863
  -OEChem-02152218483D

 50 51  0     1  0  0  0  0  0999 V2000
    6.0334  -30.9675   -9.2878 C   0  0  0  0  0  0  0  0  0  0  0  0
   13.5611  -26.3014  -11.0451 C   0  0  0  0  0  0  0  0  0  0  0  0
    5.2727  -32.1328   -9.3812 C   0  0  0  0  0  0  0  0  0  0  0  0
   14.3880  -27.2934  -11.5722 C   0  0  0  0  0  0  0  0  0  0  0  0
    4.0330  -29.7000   -8.8093 C   0  0  0  0  0  0  0  0  0  0  0  0
   11.8340  -26.9021  -12.6241 C   0  0  0  0  0  0  0  0  0  0  0  0
    5.4136  -29.7510   -9.0018 C   0  0  0  0  0  0  0  0  0  0  0  0
   12.2841  -26.1058  -11.5710 C   0  0  0  0  0  0  0  0  0  0  0  0
    3.8921  -32.0818   -9.1887 C   0  0  0  0  0  0  0  0  0  0  0  0
   13.9379  -28.0897  -12.6253 C   0  0  0  0  0  0  0  0  0  0  0  0
    3.2722  -30.8654   -8.9028 C   0  0  0  0  0  0  0  0  0  0  0  0
   12.6609  -27.8940  -13.1512 C   0  0  0  0  0  0  0  0  0  0  0  0
    6.2179  -28.5204   -8.9005 C   0  0  0  0  0  0  0  0  0  0  0  0
   11.4097  -25.0596  -11.0122 C   0  0  0  0  0  0  0  0  0  0  0  0
    5.7255  -27.2780   -9.0130 C   0  0  0  0  0  0  0  0  0  0  0  0
   10.0772  -25.0249  -11.1548 C   0  0  0  0  0  0  0  0  0  0  0  0
    6.6342  -26.1034   -8.8831 C   0  0  0  0  0  0  0  0  0  0  0  0
    9.3056  -23.9237  -10.5350 C   0  0  0  0  0  0  0  0  0  0  0  0
    5.9399  -23.0103  -11.2828 C   0  0  0  0  0  0  0  0  0  0  0  0
    6.5973  -23.6160   -8.9449 C   0  0  0  0  0  0  0  0  0  0  0  0
    7.0884  -23.1453  -10.3079 C   0  0  1  0  0  0  0  0  0  0  0  0
    5.9548  -24.9014   -9.0269 N   0  0  0  0  0  0  0  0  0  0  0  0
    7.8372  -26.2201   -8.6733 O   0  0  0  0  0  0  0  0  0  0  0  0
    9.7787  -23.0077   -9.8812 O   0  0  0  0  0  0  0  0  0  0  0  0
    5.7920  -23.6676  -12.3031 O   0  0  0  0  0  0  0  0  0  0  0  0
    3.1606  -33.2271   -9.2828 O   0  0  0  0  0  0  0  0  0  0  0  0
   14.7553  -29.0549  -13.1311 O   0  0  0  0  0  0  0  0  0  0  0  0
    1.9245  -30.8037   -8.7139 O   0  0  0  0  0  0  0  0  0  0  0  0
   12.2113  -28.6653  -14.1803 O   0  0  0  0  0  0  0  0  0  0  0  0
    5.0884  -22.0281  -10.8924 O   0  0  0  0  0  0  0  0  0  0  0  0
    7.9864  -24.1177  -10.8263 O   0  0  0  0  0  0  0  0  0  0  0  0
    7.1087  -31.0230   -9.4392 H   0  0  0  0  0  0  0  0  0  0  0  0
   13.9254  -25.6893  -10.2236 H   0  0  0  0  0  0  0  0  0  0  0  0
    5.7617  -33.0772   -9.6045 H   0  0  0  0  0  0  0  0  0  0  0  0
   15.3819  -27.4404  -11.1581 H   0  0  0  0  0  0  0  0  0  0  0  0
    3.5415  -28.7557   -8.5854 H   0  0  0  0  0  0  0  0  0  0  0  0
   10.8393  -26.7567  -13.0399 H   0  0  0  0  0  0  0  0  0  0  0  0
    7.2759  -28.6748   -8.7014 H   0  0  0  0  0  0  0  0  0  0  0  0
   11.9178  -24.2910  -10.4340 H   0  0  0  0  0  0  0  0  0  0  0  0
    4.6716  -27.0894   -9.1878 H   0  0  0  0  0  0  0  0  0  0  0  0
    9.5284  -25.7831  -11.7027 H   0  0  0  0  0  0  0  0  0  0  0  0
    7.4185  -23.7181   -8.2290 H   0  0  0  0  0  0  0  0  0  0  0  0
    5.8612  -22.9188   -8.5301 H   0  0  0  0  0  0  0  0  0  0  0  0
    7.6212  -22.1900  -10.2455 H   0  0  0  0  0  0  0  0  0  0  0  0
    4.9511  -24.9305   -9.1992 H   0  0  0  0  0  0  0  0  0  0  0  0
    3.7394  -33.9788   -9.4856 H   0  0  0  0  0  0  0  0  0  0  0  0
   15.6018  -29.0595  -12.6571 H   0  0  0  0  0  0  0  0  0  0  0  0
    1.6538  -29.8913   -8.5259 H   0  0  0  0  0  0  0  0  0  0  0  0
   11.3107  -28.4028  -14.4272 H   0  0  0  0  0  0  0  0  0  0  0  0
    4.3475  -21.9131  -11.5249 H   0  0  0  0  0  0  0  0  0  0  0  0
  1  3  2  0  0  0  0
  1  7  1  0  0  0  0
  2  4  2  0  0  0  0
  2  8  1  0  0  0  0
  3  9  1  0  0  0  0
  4 10  1  0  0  0  0
  5  7  2  0  0  0  0
  5 11  1  0  0  0  0
  6  8  2  0  0  0  0
  6 12  1  0  0  0  0
  7 13  1  0  0  0  0
  8 14  1  0  0  0  0
  9 11  2  0  0  0  0
  9 26  1  0  0  0  0
 10 12  2  0  0  0  0
 10 27  1  0  0  0  0
 11 28  1  0  0  0  0
 12 29  1  0  0  0  0
 13 15  2  0  0  0  0
 14 16  2  0  0  0  0
 15 17  1  0  0  0  0
 16 18  1  0  0  0  0
 17 22  1  0  0  0  0
 17 23  2  0  0  0  0
 18 24  2  0  0  0  0
 18 31  1  0  0  0  0
 19 21  1  0  0  0  0
 19 25  2  0  0  0  0
 19 30  1  0  0  0  0
 20 21  1  0  0  0  0
 20 22  1  0  0  0  0
 21 31  1  0  0  0  0
  1 32  1  0  0  0  0
  2 33  1  0  0  0  0
  3 34  1  0  0  0  0
  4 35  1  0  0  0  0
  5 36  1  0  0  0  0
  6 37  1  0  0  0  0
 13 38  1  0  0  0  0
 14 39  1  0  0  0  0
 15 40  1  0  0  0  0
 16 41  1  0  0  0  0
 20 42  1  0  0  0  0
 20 43  1  0  0  0  0
 21 44  1  0  0  0  0
 22 45  1  0  0  0  0
 26 46  1  0  0  0  0
 27 47  1  0  0  0  0
 28 48  1  0  0  0  0
 29 49  1  0  0  0  0
 30 50  1  0  0  0  0
M  END
> <Hybrid2>
-2.628567695617676

> <Hybrid2>
-2.628568

$$$$
CHEMBL472863
  -OEChem-02152218483D

 50 51  0     1  0  0  0  0  0999 V2000
    5.8645  -30.9407   -8.7576 C   0  0  0  0  0  0  0  0  0  0  0  0
   13.3922  -26.2746  -10.5150 C   0  0  0  0  0  0  0  0  0  0  0  0
    5.1038  -32.1061   -8.8511 C   0  0  0  0  0  0  0  0  0  0  0  0
   14.2191  -27.2666  -11.0421 C   0  0  0  0  0  0  0  0  0  0  0  0
    3.8641  -29.6732   -8.2792 C   0  0  0  0  0  0  0  0  0  0  0  0
   11.6651  -26.8753  -12.0939 C   0  0  0  0  0  0  0  0  0  0  0  0
    5.2447  -29.7243   -8.4716 C   0  0  0  0  0  0  0  0  0  0  0  0
   12.1152  -26.0790  -11.0409 C   0  0  0  0  0  0  0  0  0  0  0  0
    3.7232  -32.0551   -8.6586 C   0  0  0  0  0  0  0  0  0  0  0  0
   13.7690  -28.0629  -12.0951 C   0  0  0  0  0  0  0  0  0  0  0  0
    3.1033  -30.8386   -8.3726 C   0  0  0  0  0  0  0  0  0  0  0  0
   12.4920  -27.8673  -12.6211 C   0  0  0  0  0  0  0  0  0  0  0  0
    6.0490  -28.4937   -8.3703 C   0  0  0  0  0  0  0  0  0  0  0  0
   11.2408  -25.0328  -10.4820 C   0  0  0  0  0  0  0  0  0  0  0  0
    5.5566  -27.2512   -8.4829 C   0  0  0  0  0  0  0  0  0  0  0  0
    9.9083  -24.9981  -10.6246 C   0  0  0  0  0  0  0  0  0  0  0  0
    6.4653  -26.0766   -8.3530 C   0  0  0  0  0  0  0  0  0  0  0  0
    9.1367  -23.8970  -10.0049 C   0  0  0  0  0  0  0  0  0  0  0  0
    5.7710  -22.9836  -10.7527 C   0  0  0  0  0  0  0  0  0  0  0  0
    6.4284  -23.5892   -8.4148 C   0  0  0  0  0  0  0  0  0  0  0  0
    6.9195  -23.1186   -9.7778 C   0  0  1  0  0  0  0  0  0  0  0  0
    5.7859  -24.8746   -8.4968 N   0  0  0  0  0  0  0  0  0  0  0  0
    7.6683  -26.1934   -8.1432 O   0  0  0  0  0  0  0  0  0  0  0  0
    9.6098  -22.9810   -9.3511 O   0  0  0  0  0  0  0  0  0  0  0  0
    5.6231  -23.6408  -11.7730 O   0  0  0  0  0  0  0  0  0  0  0  0
    2.9917  -33.2004   -8.7527 O   0  0  0  0  0  0  0  0  0  0  0  0
   14.5864  -29.0281  -12.6009 O   0  0  0  0  0  0  0  0  0  0  0  0
    1.7556  -30.7770   -8.1837 O   0  0  0  0  0  0  0  0  0  0  0  0
   12.0424  -28.6386  -13.6501 O   0  0  0  0  0  0  0  0  0  0  0  0
    4.9195  -22.0013  -10.3622 O   0  0  0  0  0  0  0  0  0  0  0  0
    7.8175  -24.0909  -10.2962 O   0  0  0  0  0  0  0  0  0  0  0  0
    6.9398  -30.9963   -8.9090 H   0  0  0  0  0  0  0  0  0  0  0  0
   13.7564  -25.6625   -9.6934 H   0  0  0  0  0  0  0  0  0  0  0  0
    5.5928  -33.0504   -9.0743 H   0  0  0  0  0  0  0  0  0  0  0  0
   15.2129  -27.4137  -10.6279 H   0  0  0  0  0  0  0  0  0  0  0  0
    3.3726  -28.7289   -8.0553 H   0  0  0  0  0  0  0  0  0  0  0  0
   10.6704  -26.7299  -12.5098 H   0  0  0  0  0  0  0  0  0  0  0  0
    7.1070  -28.6480   -8.1712 H   0  0  0  0  0  0  0  0  0  0  0  0
   11.7489  -24.2642   -9.9039 H   0  0  0  0  0  0  0  0  0  0  0  0
    4.5027  -27.0627   -8.6577 H   0  0  0  0  0  0  0  0  0  0  0  0
    9.3595  -25.7563  -11.1725 H   0  0  0  0  0  0  0  0  0  0  0  0
    7.2496  -23.6913   -7.6988 H   0  0  0  0  0  0  0  0  0  0  0  0
    5.6923  -22.8921   -7.9999 H   0  0  0  0  0  0  0  0  0  0  0  0
    7.4523  -22.1632   -9.7153 H   0  0  0  0  0  0  0  0  0  0  0  0
    4.7822  -24.9037   -8.6690 H   0  0  0  0  0  0  0  0  0  0  0  0
    3.5705  -33.9521   -8.9555 H   0  0  0  0  0  0  0  0  0  0  0  0
   15.4329  -29.0328  -12.1270 H   0  0  0  0  0  0  0  0  0  0  0  0
    1.4849  -29.8646   -7.9957 H   0  0  0  0  0  0  0  0  0  0  0  0
   11.1418  -28.3760  -13.8971 H   0  0  0  0  0  0  0  0  0  0  0  0
    4.1786  -21.8863  -10.9948 H   0  0  0  0  0  0  0  0  0  0  0  0
  1  3  2  0  0  0  0
  1  7  1  0  0  0  0
  2  4  2  0  0  0  0
  2  8  1  0  0  0  0
  3  9  1  0  0  0  0
  4 10  1  0  0  0  0
  5  7  2  0  0  0  0
  5 11  1  0  0  0  0
  6  8  2  0  0  0  0
  6 12  1  0  0  0  0
  7 13  1  0  0  0  0
  8 14  1  0  0  0  0
  9 11  2  0  0  0  0
  9 26  1  0  0  0  0
 10 12  2  0  0  0  0
 10 27  1  0  0  0  0
 11 28  1  0  0  0  0
 12 29  1  0  0  0  0
 13 15  2  0  0  0  0
 14 16  2  0  0  0  0
 15 17  1  0  0  0  0
 16 18  1  0  0  0  0
 17 22  1  0  0  0  0
 17 23  2  0  0  0  0
 18 24  2  0  0  0  0
 18 31  1  0  0  0  0
 19 21  1  0  0  0  0
 19 25  2  0  0  0  0
 19 30  1  0  0  0  0
 20 21  1  0  0  0  0
 20 22  1  0  0  0  0
 21 31  1  0  0  0  0
  1 32  1  0  0  0  0
  2 33  1  0  0  0  0
  3 34  1  0  0  0  0
  4 35  1  0  0  0  0
  5 36  1  0  0  0  0
  6 37  1  0  0  0  0
 13 38  1  0  0  0  0
 14 39  1  0  0  0  0
 15 40  1  0  0  0  0
 16 41  1  0  0  0  0
 20 42  1  0  0  0  0
 20 43  1  0  0  0  0
 21 44  1  0  0  0  0
 22 45  1  0  0  0  0
 26 46  1  0  0  0  0
 27 47  1  0  0  0  0
 28 48  1  0  0  0  0
 29 49  1  0  0  0  0
 30 50  1  0  0  0  0
M  END
> <Hybrid2>
-2.628567695617676

> <Hybrid2>
-2.167827

$$$$
CHEMBL86448
  -OEChem-02152218483D

 60 62  0     0  0  0  0  0  0999 V2000
    2.1505  -32.1068   -7.2599 C   0  0  0  0  0  0  0  0  0  0  0  0
   12.3768  -26.4890  -10.1233 C   0  0  0  0  0  0  0  0  0  0  0  0
    4.7425  -25.1912   -9.7052 C   0  0  0  0  0  0  0  0  0  0  0  0
    2.1383  -33.1733   -8.1587 C   0  0  0  0  0  0  0  0  0  0  0  0
   12.8568  -26.6864  -11.4180 C   0  0  0  0  0  0  0  0  0  0  0  0
    4.0686  -26.2986   -9.1903 C   0  0  0  0  0  0  0  0  0  0  0  0
    6.1360  -25.1896   -9.7671 C   0  0  0  0  0  0  0  0  0  0  0  0
    2.8060  -30.9214   -7.5930 C   0  0  0  0  0  0  0  0  0  0  0  0
   11.0028  -26.4253   -9.8910 C   0  0  0  0  0  0  0  0  0  0  0  0
    3.4371  -31.8692   -9.7238 C   0  0  0  0  0  0  0  0  0  0  0  0
   10.5889  -26.7564  -12.2481 C   0  0  0  0  0  0  0  0  0  0  0  0
    6.1816  -27.4027   -8.7992 C   0  0  0  0  0  0  0  0  0  0  0  0
    2.7816  -33.0546   -9.3907 C   0  0  0  0  0  0  0  0  0  0  0  0
   11.9629  -26.8201  -12.4804 C   0  0  0  0  0  0  0  0  0  0  0  0
    4.7881  -27.4043   -8.7373 C   0  0  0  0  0  0  0  0  0  0  0  0
    6.8556  -26.2953   -9.3141 C   0  0  0  0  0  0  0  0  0  0  0  0
    3.4493  -30.8026   -8.8250 C   0  0  0  0  0  0  0  0  0  0  0  0
   10.1089  -26.5590  -10.9533 C   0  0  0  0  0  0  0  0  0  0  0  0
    3.2910  -35.3804  -10.0214 C   0  0  0  0  0  0  0  0  0  0  0  0
   13.2726  -26.1305  -14.4491 C   0  0  0  0  0  0  0  0  0  0  0  0
    2.7687  -34.1664  -10.3280 C   0  0  0  0  0  0  0  0  0  0  0  0
   12.4631  -27.0263  -13.8302 C   0  0  0  0  0  0  0  0  0  0  0  0
    3.3061  -36.5389  -10.9468 C   0  0  0  0  0  0  0  0  0  0  0  0
   13.8001  -26.2956  -15.8250 C   0  0  0  0  0  0  0  0  0  0  0  0
    3.9294  -37.7940  -10.4200 C   0  0  0  0  0  0  0  0  0  0  0  0
   14.6791  -25.1937  -16.3295 C   0  0  0  0  0  0  0  0  0  0  0  0
    4.0623  -28.5958   -8.1849 C   0  0  0  0  0  0  0  0  0  0  0  0
    8.3457  -26.2932   -9.3798 C   0  0  0  0  0  0  0  0  0  0  0  0
    2.8843  -36.5521  -12.0907 O   0  0  0  0  0  0  0  0  0  0  0  0
   13.5648  -27.2239  -16.5797 O   0  0  0  0  0  0  0  0  0  0  0  0
    4.3976  -37.8639   -9.3022 O   0  0  0  0  0  0  0  0  0  0  0  0
   14.9460  -24.2195  -15.6563 O   0  0  0  0  0  0  0  0  0  0  0  0
    2.1998  -33.8776  -11.5611 O   0  0  0  0  0  0  0  0  0  0  0  0
   12.0296  -28.1981  -14.4358 O   0  0  0  0  0  0  0  0  0  0  0  0
    3.8987  -38.7415  -11.3667 O   0  0  0  0  0  0  0  0  0  0  0  0
   15.0566  -25.4612  -17.5868 O   0  0  0  0  0  0  0  0  0  0  0  0
    4.0890  -29.6461   -9.1502 O   0  0  0  0  0  0  0  0  0  0  0  0
    8.7593  -26.4965  -10.7253 O   0  0  0  0  0  0  0  0  0  0  0  0
    1.6494  -32.1991   -6.3008 H   0  0  0  0  0  0  0  0  0  0  0  0
   13.0728  -26.3851   -9.2961 H   0  0  0  0  0  0  0  0  0  0  0  0
    4.1821  -24.3303  -10.0580 H   0  0  0  0  0  0  0  0  0  0  0  0
    1.6233  -34.0912   -7.8848 H   0  0  0  0  0  0  0  0  0  0  0  0
   13.9306  -26.7336  -11.5835 H   0  0  0  0  0  0  0  0  0  0  0  0
    2.9825  -26.2910   -9.1465 H   0  0  0  0  0  0  0  0  0  0  0  0
    6.6528  -24.3221  -10.1692 H   0  0  0  0  0  0  0  0  0  0  0  0
    2.8123  -30.0940   -6.8885 H   0  0  0  0  0  0  0  0  0  0  0  0
   10.6349  -26.2710   -8.8802 H   0  0  0  0  0  0  0  0  0  0  0  0
    3.9419  -31.7674  -10.6824 H   0  0  0  0  0  0  0  0  0  0  0  0
    9.8840  -26.8594  -13.0706 H   0  0  0  0  0  0  0  0  0  0  0  0
    6.7431  -28.2648   -8.4470 H   0  0  0  0  0  0  0  0  0  0  0  0
    3.7435  -35.5496   -9.0480 H   0  0  0  0  0  0  0  0  0  0  0  0
   13.5674  -25.2177  -13.9384 H   0  0  0  0  0  0  0  0  0  0  0  0
    4.5335  -28.9478   -7.2609 H   0  0  0  0  0  0  0  0  0  0  0  0
    3.0210  -28.3439   -7.9567 H   0  0  0  0  0  0  0  0  0  0  0  0
    8.7611  -25.3401   -9.0251 H   0  0  0  0  0  0  0  0  0  0  0  0
    8.7714  -27.0904   -8.7552 H   0  0  0  0  0  0  0  0  0  0  0  0
    2.2309  -34.6594  -12.1168 H   0  0  0  0  0  0  0  0  0  0  0  0
   12.4027  -28.2571  -15.3180 H   0  0  0  0  0  0  0  0  0  0  0  0
    4.3197  -39.5765  -11.0706 H   0  0  0  0  0  0  0  0  0  0  0  0
   15.6169  -24.7508  -17.9658 H   0  0  0  0  0  0  0  0  0  0  0  0
  1  4  2  0  0  0  0
  1  8  1  0  0  0  0
  2  5  1  0  0  0  0
  2  9  2  0  0  0  0
  3  6  2  0  0  0  0
  3  7  1  0  0  0  0
  4 13  1  0  0  0  0
  5 14  2  0  0  0  0
  6 15  1  0  0  0  0
  7 16  2  0  0  0  0
  8 17  2  0  0  0  0
  9 18  1  0  0  0  0
 10 13  2  0  0  0  0
 10 17  1  0  0  0  0
 11 14  1  0  0  0  0
 11 18  2  0  0  0  0
 12 15  2  0  0  0  0
 12 16  1  0  0  0  0
 13 21  1  0  0  0  0
 14 22  1  0  0  0  0
 15 27  1  0  0  0  0
 16 28  1  0  0  0  0
 17 37  1  0  0  0  0
 18 38  1  0  0  0  0
 19 21  2  0  0  0  0
 19 23  1  0  0  0  0
 20 22  2  0  0  0  0
 20 24  1  0  0  0  0
 21 33  1  0  0  0  0
 22 34  1  0  0  0  0
 23 25  1  0  0  0  0
 23 29  2  0  0  0  0
 24 26  1  0  0  0  0
 24 30  2  0  0  0  0
 25 31  2  0  0  0  0
 25 35  1  0  0  0  0
 26 32  2  0  0  0  0
 26 36  1  0  0  0  0
 27 37  1  0  0  0  0
 28 38  1  0  0  0  0
  1 39  1  0  0  0  0
  2 40  1  0  0  0  0
  3 41  1  0  0  0  0
  4 42  1  0  0  0  0
  5 43  1  0  0  0  0
  6 44  1  0  0  0  0
  7 45  1  0  0  0  0
  8 46  1  0  0  0  0
  9 47  1  0  0  0  0
 10 48  1  0  0  0  0
 11 49  1  0  0  0  0
 12 50  1  0  0  0  0
 19 51  1  0  0  0  0
 20 52  1  0  0  0  0
 27 53  1  0  0  0  0
 27 54  1  0  0  0  0
 28 55  1  0  0  0  0
 28 56  1  0  0  0  0
 33 57  1  0  0  0  0
 34 58  1  0  0  0  0
 35 59  1  0  0  0  0
 36 60  1  0  0  0  0
M  END
> <Hybrid2>
-5.336728572845459

> <Hybrid2>
-5.336729

$$$$
CHEMBL86448
  -OEChem-02152218483D

 60 62  0     0  0  0  0  0  0999 V2000
    2.0783  -30.9778   -7.1623 C   0  0  0  0  0  0  0  0  0  0  0  0
   12.5349  -26.3231  -10.8130 C   0  0  0  0  0  0  0  0  0  0  0  0
    5.0418  -24.4363  -10.1537 C   0  0  0  0  0  0  0  0  0  0  0  0
    1.9471  -32.0930   -7.9896 C   0  0  0  0  0  0  0  0  0  0  0  0
   12.9378  -26.6340  -12.1117 C   0  0  0  0  0  0  0  0  0  0  0  0
    4.3152  -25.4569   -9.5407 C   0  0  0  0  0  0  0  0  0  0  0  0
    6.4274  -24.5424  -10.2750 C   0  0  0  0  0  0  0  0  0  0  0  0
    2.8007  -29.8670   -7.5983 C   0  0  0  0  0  0  0  0  0  0  0  0
   11.1816  -26.1431  -10.5269 C   0  0  0  0  0  0  0  0  0  0  0  0
    3.2608  -30.9870   -9.6890 C   0  0  0  0  0  0  0  0  0  0  0  0
   10.6341  -26.5849  -12.8381 C   0  0  0  0  0  0  0  0  0  0  0  0
    6.3596  -26.6898   -9.1701 C   0  0  0  0  0  0  0  0  0  0  0  0
    2.5384  -32.0977   -9.2530 C   0  0  0  0  0  0  0  0  0  0  0  0
   11.9874  -26.7650  -13.1243 C   0  0  0  0  0  0  0  0  0  0  0  0
    4.9740  -26.5837   -9.0489 C   0  0  0  0  0  0  0  0  0  0  0  0
    7.0862  -25.6692   -9.7832 C   0  0  0  0  0  0  0  0  0  0  0  0
    3.3920  -29.8717   -8.8616 C   0  0  0  0  0  0  0  0  0  0  0  0
   10.2312  -26.2740  -11.5394 C   0  0  0  0  0  0  0  0  0  0  0  0
    2.8491  -34.4891   -9.7546 C   0  0  0  0  0  0  0  0  0  0  0  0
   13.2488  -26.2958  -15.1872 C   0  0  0  0  0  0  0  0  0  0  0  0
    2.4014  -33.2603  -10.1158 C   0  0  0  0  0  0  0  0  0  0  0  0
   12.4073  -27.0895  -14.4783 C   0  0  0  0  0  0  0  0  0  0  0  0
    2.7373  -35.6995  -10.6037 C   0  0  0  0  0  0  0  0  0  0  0  0
   13.6976  -26.5831  -16.5709 C   0  0  0  0  0  0  0  0  0  0  0  0
    3.2929  -36.9633  -10.0247 C   0  0  0  0  0  0  0  0  0  0  0  0
   14.6287  -25.5826  -17.1820 C   0  0  0  0  0  0  0  0  0  0  0  0
    4.1914  -27.6819   -8.3909 C   0  0  0  0  0  0  0  0  0  0  0  0
    8.5679  -25.7822   -9.9124 C   0  0  0  0  0  0  0  0  0  0  0  0
    2.2620  -35.7506  -11.7254 O   0  0  0  0  0  0  0  0  0  0  0  0
   13.3608  -27.5354  -17.2539 O   0  0  0  0  0  0  0  0  0  0  0  0
    3.8072  -36.9999   -8.9257 O   0  0  0  0  0  0  0  0  0  0  0  0
   14.9963  -24.5919  -16.5845 O   0  0  0  0  0  0  0  0  0  0  0  0
    1.7972  -33.0053  -11.3395 O   0  0  0  0  0  0  0  0  0  0  0  0
   11.8627  -28.2603  -14.9885 O   0  0  0  0  0  0  0  0  0  0  0  0
    3.1497  -37.9616  -10.9066 O   0  0  0  0  0  0  0  0  0  0  0  0
   14.9262  -25.9534  -18.4345 O   0  0  0  0  0  0  0  0  0  0  0  0
    4.0970  -28.7880   -9.2872 O   0  0  0  0  0  0  0  0  0  0  0  0
    8.9019  -26.0971  -11.2585 O   0  0  0  0  0  0  0  0  0  0  0  0
    1.6177  -30.9740   -6.1787 H   0  0  0  0  0  0  0  0  0  0  0  0
   13.2749  -26.2214  -10.0246 H   0  0  0  0  0  0  0  0  0  0  0  0
    4.5286  -23.5589  -10.5368 H   0  0  0  0  0  0  0  0  0  0  0  0
    1.3810  -32.9516   -7.6358 H   0  0  0  0  0  0  0  0  0  0  0  0
   13.9965  -26.7712  -12.3195 H   0  0  0  0  0  0  0  0  0  0  0  0
    3.2357  -25.3657   -9.4512 H   0  0  0  0  0  0  0  0  0  0  0  0
    6.9855  -23.7419  -10.7534 H   0  0  0  0  0  0  0  0  0  0  0  0
    2.8997  -29.0012   -6.9491 H   0  0  0  0  0  0  0  0  0  0  0  0
   10.8739  -25.9006   -9.5133 H   0  0  0  0  0  0  0  0  0  0  0  0
    3.7258  -30.9815  -10.6728 H   0  0  0  0  0  0  0  0  0  0  0  0
    9.8855  -26.6848  -13.6215 H   0  0  0  0  0  0  0  0  0  0  0  0
    6.8737  -27.5685   -8.7878 H   0  0  0  0  0  0  0  0  0  0  0  0
    3.3337  -34.6322   -8.7926 H   0  0  0  0  0  0  0  0  0  0  0  0
   13.6322  -25.3782  -14.7490 H   0  0  0  0  0  0  0  0  0  0  0  0
    4.6793  -28.0114   -7.4672 H   0  0  0  0  0  0  0  0  0  0  0  0
    3.1829  -27.3397   -8.1351 H   0  0  0  0  0  0  0  0  0  0  0  0
    9.0669  -24.8430   -9.6374 H   0  0  0  0  0  0  0  0  0  0  0  0
    8.9643  -26.5696   -9.2568 H   0  0  0  0  0  0  0  0  0  0  0  0
    1.7457  -33.8196  -11.8448 H   0  0  0  0  0  0  0  0  0  0  0  0
   12.1885  -28.4005  -15.8802 H   0  0  0  0  0  0  0  0  0  0  0  0
    3.5231  -38.8062  -10.5759 H   0  0  0  0  0  0  0  0  0  0  0  0
   15.5175  -25.3111  -18.8818 H   0  0  0  0  0  0  0  0  0  0  0  0
  1  4  2  0  0  0  0
  1  8  1  0  0  0  0
  2  5  1  0  0  0  0
  2  9  2  0  0  0  0
  3  6  2  0  0  0  0
  3  7  1  0  0  0  0
  4 13  1  0  0  0  0
  5 14  2  0  0  0  0
  6 15  1  0  0  0  0
  7 16  2  0  0  0  0
  8 17  2  0  0  0  0
  9 18  1  0  0  0  0
 10 13  2  0  0  0  0
 10 17  1  0  0  0  0
 11 14  1  0  0  0  0
 11 18  2  0  0  0  0
 12 15  2  0  0  0  0
 12 16  1  0  0  0  0
 13 21  1  0  0  0  0
 14 22  1  0  0  0  0
 15 27  1  0  0  0  0
 16 28  1  0  0  0  0
 17 37  1  0  0  0  0
 18 38  1  0  0  0  0
 19 21  2  0  0  0  0
 19 23  1  0  0  0  0
 20 22  2  0  0  0  0
 20 24  1  0  0  0  0
 21 33  1  0  0  0  0
 22 34  1  0  0  0  0
 23 25  1  0  0  0  0
 23 29  2  0  0  0  0
 24 26  1  0  0  0  0
 24 30  2  0  0  0  0
 25 31  2  0  0  0  0
 25 35  1  0  0  0  0
 26 32  2  0  0  0  0
 26 36  1  0  0  0  0
 27 37  1  0  0  0  0
 28 38  1  0  0  0  0
  1 39  1  0  0  0  0
  2 40  1  0  0  0  0
  3 41  1  0  0  0  0
  4 42  1  0  0  0  0
  5 43  1  0  0  0  0
  6 44  1  0  0  0  0
  7 45  1  0  0  0  0
  8 46  1  0  0  0  0
  9 47  1  0  0  0  0
 10 48  1  0  0  0  0
 11 49  1  0  0  0  0
 12 50  1  0  0  0  0
 19 51  1  0  0  0  0
 20 52  1  0  0  0  0
 27 53  1  0  0  0  0
 27 54  1  0  0  0  0
 28 55  1  0  0  0  0
 28 56  1  0  0  0  0
 33 57  1  0  0  0  0
 34 58  1  0  0  0  0
 35 59  1  0  0  0  0
 36 60  1  0  0  0  0
M  END
> <Hybrid2>
-5.336728572845459

> <Hybrid2>
-4.295667

$$$$
CHEMBL377621
  -OEChem-02152218483D

 49 52  0     0  0  0  0  0  0999 V2000
   12.5790  -27.0524  -15.4421 C   0  0  0  0  0  0  0  0  0  0  0  0
   12.4669  -27.2226  -14.0695 C   0  0  0  0  0  0  0  0  0  0  0  0
    6.3194  -27.3889   -7.1955 C   0  0  0  0  0  0  0  0  0  0  0  0
    6.2066  -27.8699   -9.5604 C   0  0  0  0  0  0  0  0  0  0  0  0
    5.5431  -28.5166   -6.9290 C   0  0  0  0  0  0  0  0  0  0  0  0
    5.4303  -28.9977   -9.2940 C   0  0  0  0  0  0  0  0  0  0  0  0
   11.5159  -26.4725  -16.1044 C   0  0  0  0  0  0  0  0  0  0  0  0
   11.3072  -26.8137  -13.3995 C   0  0  0  0  0  0  0  0  0  0  0  0
   10.0143  -26.5603  -11.3913 C   0  0  0  0  0  0  0  0  0  0  0  0
    9.0033  -25.9873  -12.1570 C   0  0  0  0  0  0  0  0  0  0  0  0
    6.6512  -27.0654   -8.5112 C   0  0  0  0  0  0  0  0  0  0  0  0
   10.2662  -26.2263  -14.1708 C   0  0  0  0  0  0  0  0  0  0  0  0
   11.1784  -26.9800  -12.0056 C   0  0  0  0  0  0  0  0  0  0  0  0
    9.1048  -25.8127  -13.5258 C   0  0  0  0  0  0  0  0  0  0  0  0
    5.0985  -29.3211   -7.9783 C   0  0  0  0  0  0  0  0  0  0  0  0
    9.5604  -26.5811  -10.0029 C   0  0  0  0  0  0  0  0  0  0  0  0
    7.8867  -25.6332  -11.2676 C   0  0  0  0  0  0  0  0  0  0  0  0
   10.2168  -27.0456   -8.9331 C   0  0  0  0  0  0  0  0  0  0  0  0
   14.2737  -29.0086   -9.4450 C   0  0  0  0  0  0  0  0  0  0  0  0
   15.3674  -28.3381  -11.5457 C   0  0  0  0  0  0  0  0  0  0  0  0
    7.4874  -25.8521   -8.7986 C   0  0  0  0  0  0  0  0  0  0  0  0
   10.3769  -26.0620  -15.5012 N   0  0  0  0  0  0  0  0  0  0  0  0
    8.2918  -26.0184   -9.9913 N   0  0  0  0  0  0  0  0  0  0  0  0
   14.6404  -27.8746  -10.3343 N   0  0  0  0  0  0  0  0  0  0  0  0
    6.8486  -25.1123  -11.6315 O   0  0  0  0  0  0  0  0  0  0  0  0
   13.8974  -25.7380  -11.5843 O   0  0  0  0  0  0  0  0  0  0  0  0
   12.9548  -26.2105   -9.3003 O   0  0  0  0  0  0  0  0  0  0  0  0
    8.0864  -25.2465  -14.2295 O   0  0  0  0  0  0  0  0  0  0  0  0
   12.1831  -27.5442  -11.2800 O   0  0  0  0  0  0  0  0  0  0  0  0
    4.3553  -30.4056   -7.7223 F   0  0  0  0  0  0  0  0  0  0  0  0
   13.4026  -26.6838  -10.5988 S   0  0  0  0  0  0  0  0  0  0  0  0
   13.4704  -27.3636  -15.9740 H   0  0  0  0  0  0  0  0  0  0  0  0
   13.2989  -27.6778  -13.5375 H   0  0  0  0  0  0  0  0  0  0  0  0
    6.6605  -26.7677   -6.3714 H   0  0  0  0  0  0  0  0  0  0  0  0
    6.4604  -27.6259  -10.5887 H   0  0  0  0  0  0  0  0  0  0  0  0
    5.2853  -28.7689   -5.9048 H   0  0  0  0  0  0  0  0  0  0  0  0
    5.0837  -29.6240  -10.1106 H   0  0  0  0  0  0  0  0  0  0  0  0
   11.5492  -26.3158  -17.1777 H   0  0  0  0  0  0  0  0  0  0  0  0
    9.7666  -27.0029   -7.9500 H   0  0  0  0  0  0  0  0  0  0  0  0
   11.2067  -27.4701   -9.0362 H   0  0  0  0  0  0  0  0  0  0  0  0
   13.7393  -28.6257   -8.5631 H   0  0  0  0  0  0  0  0  0  0  0  0
   13.6244  -29.7081   -9.9920 H   0  0  0  0  0  0  0  0  0  0  0  0
   15.1862  -29.5313   -9.1224 H   0  0  0  0  0  0  0  0  0  0  0  0
   15.6203  -27.4727  -12.1758 H   0  0  0  0  0  0  0  0  0  0  0  0
   16.2908  -28.8541  -11.2440 H   0  0  0  0  0  0  0  0  0  0  0  0
   14.7290  -29.0310  -12.1136 H   0  0  0  0  0  0  0  0  0  0  0  0
    6.8528  -24.9705   -8.9401 H   0  0  0  0  0  0  0  0  0  0  0  0
    8.1645  -25.6352   -7.9658 H   0  0  0  0  0  0  0  0  0  0  0  0
    7.3545  -25.0162  -13.6353 H   0  0  0  0  0  0  0  0  0  0  0  0
  1  2  2  0  0  0  0
  1  7  1  0  0  0  0
  2  8  1  0  0  0  0
  3  5  2  0  0  0  0
  3 11  1  0  0  0  0
  4  6  1  0  0  0  0
  4 11  2  0  0  0  0
  5 15  1  0  0  0  0
  6 15  2  0  0  0  0
  7 22  2  0  0  0  0
  8 12  2  0  0  0  0
  8 13  1  0  0  0  0
  9 10  1  0  0  0  0
  9 13  2  0  0  0  0
  9 16  1  0  0  0  0
 10 14  2  0  0  0  0
 10 17  1  0  0  0  0
 11 21  1  0  0  0  0
 12 14  1  0  0  0  0
 12 22  1  0  0  0  0
 13 29  1  0  0  0  0
 14 28  1  0  0  0  0
 15 30  1  0  0  0  0
 16 18  2  0  0  0  0
 16 23  1  0  0  0  0
 17 23  1  0  0  0  0
 17 25  2  0  0  0  0
 19 24  1  0  0  0  0
 20 24  1  0  0  0  0
 21 23  1  0  0  0  0
 24 31  1  0  0  0  0
 26 31  2  0  0  0  0
 27 31  2  0  0  0  0
 29 31  1  0  0  0  0
  1 32  1  0  0  0  0
  2 33  1  0  0  0  0
  3 34  1  0  0  0  0
  4 35  1  0  0  0  0
  5 36  1  0  0  0  0
  6 37  1  0  0  0  0
  7 38  1  0  0  0  0
 18 39  1  0  0  0  0
 18 40  1  0  0  0  0
 19 41  1  0  0  0  0
 19 42  1  0  0  0  0
 19 43  1  0  0  0  0
 20 44  1  0  0  0  0
 20 45  1  0  0  0  0
 20 46  1  0  0  0  0
 21 47  1  0  0  0  0
 21 48  1  0  0  0  0
 28 49  1  0  0  0  0
M  END
> <Hybrid2>
-3.935595750808716

> <Hybrid2>
-3.935596

$$$$
CHEMBL377621
  -OEChem-02152218483D

 49 52  0     0  0  0  0  0  0999 V2000
    6.5733  -22.5899   -8.1682 C   0  0  0  0  0  0  0  0  0  0  0  0
    6.8307  -23.8183   -8.7600 C   0  0  0  0  0  0  0  0  0  0  0  0
   14.6507  -26.3415  -11.9933 C   0  0  0  0  0  0  0  0  0  0  0  0
   13.7062  -28.3171  -10.9724 C   0  0  0  0  0  0  0  0  0  0  0  0
   15.8444  -26.5563  -11.3044 C   0  0  0  0  0  0  0  0  0  0  0  0
   14.9000  -28.5319  -10.2836 C   0  0  0  0  0  0  0  0  0  0  0  0
    7.5487  -21.6177   -8.2603 C   0  0  0  0  0  0  0  0  0  0  0  0
    8.0439  -24.0428   -9.4224 C   0  0  0  0  0  0  0  0  0  0  0  0
    9.5316  -25.4569  -10.6696 C   0  0  0  0  0  0  0  0  0  0  0  0
   10.4448  -24.4071  -10.7022 C   0  0  0  0  0  0  0  0  0  0  0  0
   13.5816  -27.2219  -11.8272 C   0  0  0  0  0  0  0  0  0  0  0  0
    8.9859  -22.9775   -9.4630 C   0  0  0  0  0  0  0  0  0  0  0  0
    8.3201  -25.2852  -10.0284 C   0  0  0  0  0  0  0  0  0  0  0  0
   10.1982  -23.1784  -10.1157 C   0  0  0  0  0  0  0  0  0  0  0  0
   15.9691  -27.6514  -10.4496 C   0  0  0  0  0  0  0  0  0  0  0  0
   10.1272  -26.5840  -11.3831 C   0  0  0  0  0  0  0  0  0  0  0  0
   11.6391  -24.8488  -11.4382 C   0  0  0  0  0  0  0  0  0  0  0  0
    9.5958  -27.7942  -11.5926 C   0  0  0  0  0  0  0  0  0  0  0  0
    4.7012  -27.7613   -9.3461 C   0  0  0  0  0  0  0  0  0  0  0  0
    6.2675  -29.3598  -10.3707 C   0  0  0  0  0  0  0  0  0  0  0  0
   12.2966  -26.9918  -12.5689 C   0  0  0  0  0  0  0  0  0  0  0  0
    8.7344  -21.7875   -8.8888 N   0  0  0  0  0  0  0  0  0  0  0  0
   11.3771  -26.1641  -11.8162 N   0  0  0  0  0  0  0  0  0  0  0  0
    6.0234  -28.4325   -9.2343 N   0  0  0  0  0  0  0  0  0  0  0  0
   12.6219  -24.1605  -11.6424 O   0  0  0  0  0  0  0  0  0  0  0  0
    8.5700  -28.2121   -8.8525 O   0  0  0  0  0  0  0  0  0  0  0  0
    7.0042  -26.7397   -7.5455 O   0  0  0  0  0  0  0  0  0  0  0  0
   11.1252  -22.1835  -10.1757 O   0  0  0  0  0  0  0  0  0  0  0  0
    7.4089  -26.2960   -9.9812 O   0  0  0  0  0  0  0  0  0  0  0  0
   17.1163  -27.8593   -9.7902 F   0  0  0  0  0  0  0  0  0  0  0  0
    7.3576  -27.4148   -8.7823 S   0  0  0  0  0  0  0  0  0  0  0  0
    5.6389  -22.4015   -7.6525 H   0  0  0  0  0  0  0  0  0  0  0  0
    6.0687  -24.5913   -8.6940 H   0  0  0  0  0  0  0  0  0  0  0  0
   14.5628  -25.4850  -12.6565 H   0  0  0  0  0  0  0  0  0  0  0  0
   12.8786  -29.0085  -10.8370 H   0  0  0  0  0  0  0  0  0  0  0  0
   16.6770  -25.8714  -11.4341 H   0  0  0  0  0  0  0  0  0  0  0  0
   14.9973  -29.3842   -9.6177 H   0  0  0  0  0  0  0  0  0  0  0  0
    7.4010  -20.6390   -7.8154 H   0  0  0  0  0  0  0  0  0  0  0  0
   10.1442  -28.5485  -12.1413 H   0  0  0  0  0  0  0  0  0  0  0  0
    8.6104  -28.0353  -11.2162 H   0  0  0  0  0  0  0  0  0  0  0  0
    4.5586  -27.0860   -8.4896 H   0  0  0  0  0  0  0  0  0  0  0  0
    4.6621  -27.1819  -10.2802 H   0  0  0  0  0  0  0  0  0  0  0  0
    3.9044  -28.5197   -9.3514 H   0  0  0  0  0  0  0  0  0  0  0  0
    7.2524  -29.8350  -10.2518 H   0  0  0  0  0  0  0  0  0  0  0  0
    5.4864  -30.1341  -10.3863 H   0  0  0  0  0  0  0  0  0  0  0  0
    6.2441  -28.7962  -11.3151 H   0  0  0  0  0  0  0  0  0  0  0  0
   12.4875  -26.4977  -13.5279 H   0  0  0  0  0  0  0  0  0  0  0  0
   11.7930  -27.9396  -12.7860 H   0  0  0  0  0  0  0  0  0  0  0  0
   11.9093  -22.4834  -10.6626 H   0  0  0  0  0  0  0  0  0  0  0  0
  1  2  2  0  0  0  0
  1  7  1  0  0  0  0
  2  8  1  0  0  0  0
  3  5  2  0  0  0  0
  3 11  1  0  0  0  0
  4  6  1  0  0  0  0
  4 11  2  0  0  0  0
  5 15  1  0  0  0  0
  6 15  2  0  0  0  0
  7 22  2  0  0  0  0
  8 12  2  0  0  0  0
  8 13  1  0  0  0  0
  9 10  1  0  0  0  0
  9 13  2  0  0  0  0
  9 16  1  0  0  0  0
 10 14  2  0  0  0  0
 10 17  1  0  0  0  0
 11 21  1  0  0  0  0
 12 14  1  0  0  0  0
 12 22  1  0  0  0  0
 13 29  1  0  0  0  0
 14 28  1  0  0  0  0
 15 30  1  0  0  0  0
 16 18  2  0  0  0  0
 16 23  1  0  0  0  0
 17 23  1  0  0  0  0
 17 25  2  0  0  0  0
 19 24  1  0  0  0  0
 20 24  1  0  0  0  0
 21 23  1  0  0  0  0
 24 31  1  0  0  0  0
 26 31  2  0  0  0  0
 27 31  2  0  0  0  0
 29 31  1  0  0  0  0
  1 32  1  0  0  0  0
  2 33  1  0  0  0  0
  3 34  1  0  0  0  0
  4 35  1  0  0  0  0
  5 36  1  0  0  0  0
  6 37  1  0  0  0  0
  7 38  1  0  0  0  0
 18 39  1  0  0  0  0
 18 40  1  0  0  0  0
 19 41  1  0  0  0  0
 19 42  1  0  0  0  0
 19 43  1  0  0  0  0
 20 44  1  0  0  0  0
 20 45  1  0  0  0  0
 20 46  1  0  0  0  0
 21 47  1  0  0  0  0
 21 48  1  0  0  0  0
 28 49  1  0  0  0  0
M  END
> <Hybrid2>
-3.935595750808716

> <Hybrid2>
-3.447141

$$$$
CHEMBL415678
  -OEChem-02152218483D

 44 45  0     1  0  0  0  0  0999 V2000
   11.7540  -27.0465  -10.6700 C   0  0  0  0  0  0  0  0  0  0  0  0
    7.4646  -28.6766   -9.1907 C   0  0  0  0  0  0  0  0  0  0  0  0
   12.7946  -27.9524  -10.4647 C   0  0  0  0  0  0  0  0  0  0  0  0
    7.4488  -30.0517   -8.9578 C   0  0  0  0  0  0  0  0  0  0  0  0
   13.2440  -25.6202  -11.9280 C   0  0  0  0  0  0  0  0  0  0  0  0
    5.2599  -28.4870   -8.2210 C   0  0  0  0  0  0  0  0  0  0  0  0
   11.9787  -25.8804  -11.4018 C   0  0  0  0  0  0  0  0  0  0  0  0
    6.3701  -27.8942   -8.8223 C   0  0  0  0  0  0  0  0  0  0  0  0
   14.0599  -27.6922  -10.9909 C   0  0  0  0  0  0  0  0  0  0  0  0
    6.3386  -30.6445   -8.3564 C   0  0  0  0  0  0  0  0  0  0  0  0
   14.2846  -26.5261  -11.7226 C   0  0  0  0  0  0  0  0  0  0  0  0
    5.2441  -29.8622   -7.9880 C   0  0  0  0  0  0  0  0  0  0  0  0
   10.8705  -24.9172  -11.6221 C   0  0  0  0  0  0  0  0  0  0  0  0
    6.3879  -26.4301   -9.0684 C   0  0  0  0  0  0  0  0  0  0  0  0
    7.8393  -24.8098  -12.4677 C   0  0  0  0  0  0  0  0  0  0  0  0
    8.2461  -23.9903   -8.7007 C   0  0  0  0  0  0  0  0  0  0  0  0
    8.5865  -24.5169  -11.1759 C   0  0  1  0  0  0  0  0  0  0  0  0
    7.6938  -24.6679   -9.9432 C   0  0  1  0  0  0  0  0  0  0  0  0
   11.0004  -23.8794  -12.2526 O   0  0  0  0  0  0  0  0  0  0  0  0
    5.4638  -25.6894   -8.7703 O   0  0  0  0  0  0  0  0  0  0  0  0
    8.1536  -25.7069  -13.2407 O   0  0  0  0  0  0  0  0  0  0  0  0
    8.5787  -24.5729   -7.6768 O   0  0  0  0  0  0  0  0  0  0  0  0
   15.0679  -28.5849  -10.7834 O   0  0  0  0  0  0  0  0  0  0  0  0
    6.3354  -31.9886   -8.1342 O   0  0  0  0  0  0  0  0  0  0  0  0
   15.5152  -26.2617  -12.2438 O   0  0  0  0  0  0  0  0  0  0  0  0
    4.1549  -30.4288   -7.3978 O   0  0  0  0  0  0  0  0  0  0  0  0
    6.8070  -23.9632  -12.7012 O   0  0  0  0  0  0  0  0  0  0  0  0
    8.3091  -22.6408   -8.8360 O   0  0  0  0  0  0  0  0  0  0  0  0
    9.7208  -25.3543  -11.0332 O   0  0  0  0  0  0  0  0  0  0  0  0
    7.5565  -26.0546   -9.6572 O   0  0  0  0  0  0  0  0  0  0  0  0
   10.7721  -27.2596  -10.2554 H   0  0  0  0  0  0  0  0  0  0  0  0
    8.3351  -28.2254   -9.6599 H   0  0  0  0  0  0  0  0  0  0  0  0
   12.6132  -28.8588   -9.8936 H   0  0  0  0  0  0  0  0  0  0  0  0
    8.3043  -30.6557   -9.2473 H   0  0  0  0  0  0  0  0  0  0  0  0
   13.4220  -24.7130  -12.5011 H   0  0  0  0  0  0  0  0  0  0  0  0
    4.4059  -27.8794   -7.9303 H   0  0  0  0  0  0  0  0  0  0  0  0
    8.9562  -23.4869  -11.2493 H   0  0  0  0  0  0  0  0  0  0  0  0
    6.6914  -24.2673  -10.1342 H   0  0  0  0  0  0  0  0  0  0  0  0
   14.7477  -29.3361  -10.2598 H   0  0  0  0  0  0  0  0  0  0  0  0
    7.1654  -32.3818   -8.4464 H   0  0  0  0  0  0  0  0  0  0  0  0
   15.5022  -25.4180  -12.7225 H   0  0  0  0  0  0  0  0  0  0  0  0
    3.4880  -29.7513   -7.2046 H   0  0  0  0  0  0  0  0  0  0  0  0
    6.3286  -24.1258  -13.5420 H   0  0  0  0  0  0  0  0  0  0  0  0
    8.6431  -22.1616   -8.0477 H   0  0  0  0  0  0  0  0  0  0  0  0
  1  3  2  0  0  0  0
  1  7  1  0  0  0  0
  2  4  2  0  0  0  0
  2  8  1  0  0  0  0
  3  9  1  0  0  0  0
  4 10  1  0  0  0  0
  5  7  2  0  0  0  0
  5 11  1  0  0  0  0
  6  8  2  0  0  0  0
  6 12  1  0  0  0  0
  7 13  1  0  0  0  0
  8 14  1  0  0  0  0
  9 11  2  0  0  0  0
  9 23  1  0  0  0  0
 10 12  2  0  0  0  0
 10 24  1  0  0  0  0
 11 25  1  0  0  0  0
 12 26  1  0  0  0  0
 13 19  2  0  0  0  0
 13 29  1  0  0  0  0
 14 20  2  0  0  0  0
 14 30  1  0  0  0  0
 15 17  1  0  0  0  0
 15 21  2  0  0  0  0
 15 27  1  0  0  0  0
 16 18  1  0  0  0  0
 16 22  2  0  0  0  0
 16 28  1  0  0  0  0
 17 18  1  0  0  0  0
 17 29  1  0  0  0  0
 18 30  1  0  0  0  0
  1 31  1  0  0  0  0
  2 32  1  0  0  0  0
  3 33  1  0  0  0  0
  4 34  1  0  0  0  0
  5 35  1  0  0  0  0
  6 36  1  0  0  0  0
 17 37  1  0  0  0  0
 18 38  1  0  0  0  0
 23 39  1  0  0  0  0
 24 40  1  0  0  0  0
 25 41  1  0  0  0  0
 26 42  1  0  0  0  0
 27 43  1  0  0  0  0
 28 44  1  0  0  0  0
M  END
> <Hybrid2>
-4.424034118652344

> <Hybrid2>
-4.424034

$$$$
CHEMBL415678
  -OEChem-02152218483D

 44 45  0     1  0  0  0  0  0999 V2000
   13.2961  -25.4306  -11.8390 C   0  0  0  0  0  0  0  0  0  0  0  0
    7.4744  -28.5472   -9.2632 C   0  0  0  0  0  0  0  0  0  0  0  0
   14.3162  -26.3742  -11.7184 C   0  0  0  0  0  0  0  0  0  0  0  0
    7.4252  -29.9356   -9.1391 C   0  0  0  0  0  0  0  0  0  0  0  0
   11.7861  -26.9140  -10.6743 C   0  0  0  0  0  0  0  0  0  0  0  0
    5.2888  -28.3789   -8.2474 C   0  0  0  0  0  0  0  0  0  0  0  0
   12.0311  -25.7004  -11.3169 C   0  0  0  0  0  0  0  0  0  0  0  0
    6.4062  -27.7688   -8.8173 C   0  0  0  0  0  0  0  0  0  0  0  0
   14.0713  -27.5878  -11.0758 C   0  0  0  0  0  0  0  0  0  0  0  0
    6.3078  -30.5457   -8.5692 C   0  0  0  0  0  0  0  0  0  0  0  0
   12.8062  -27.8577  -10.5538 C   0  0  0  0  0  0  0  0  0  0  0  0
    5.2396  -29.7674   -8.1233 C   0  0  0  0  0  0  0  0  0  0  0  0
   10.9459  -24.6950  -11.4434 C   0  0  0  0  0  0  0  0  0  0  0  0
    6.4596  -26.2907   -8.9475 C   0  0  0  0  0  0  0  0  0  0  0  0
    7.9076  -24.4438  -12.2306 C   0  0  0  0  0  0  0  0  0  0  0  0
    8.3868  -23.9358   -8.4176 C   0  0  0  0  0  0  0  0  0  0  0  0
    8.6797  -24.2732  -10.9316 C   0  0  1  0  0  0  0  0  0  0  0  0
    7.8000  -24.4987   -9.7009 C   0  0  1  0  0  0  0  0  0  0  0  0
   11.0949  -23.6141  -11.9921 O   0  0  0  0  0  0  0  0  0  0  0  0
    5.5596  -25.5528   -8.5776 O   0  0  0  0  0  0  0  0  0  0  0  0
    8.1874  -25.2846  -13.0768 O   0  0  0  0  0  0  0  0  0  0  0  0
    8.7175  -24.6059   -7.4481 O   0  0  0  0  0  0  0  0  0  0  0  0
   15.0759  -28.5012  -10.9644 O   0  0  0  0  0  0  0  0  0  0  0  0
    6.2719  -31.9027   -8.4536 O   0  0  0  0  0  0  0  0  0  0  0  0
   12.5550  -29.0381   -9.9218 O   0  0  0  0  0  0  0  0  0  0  0  0
    4.1438  -30.3511   -7.5627 O   0  0  0  0  0  0  0  0  0  0  0  0
    6.8951  -23.5554  -12.3806 O   0  0  0  0  0  0  0  0  0  0  0  0
    8.4838  -22.5819   -8.4470 O   0  0  0  0  0  0  0  0  0  0  0  0
    9.7930  -25.1479  -10.8730 O   0  0  0  0  0  0  0  0  0  0  0  0
    7.6297  -25.8996   -9.5230 O   0  0  0  0  0  0  0  0  0  0  0  0
   13.4984  -24.4883  -12.3416 H   0  0  0  0  0  0  0  0  0  0  0  0
    8.3502  -28.0825   -9.7088 H   0  0  0  0  0  0  0  0  0  0  0  0
   15.2993  -26.1582  -12.1275 H   0  0  0  0  0  0  0  0  0  0  0  0
    8.2604  -30.5364   -9.4887 H   0  0  0  0  0  0  0  0  0  0  0  0
   10.8015  -27.1265  -10.2640 H   0  0  0  0  0  0  0  0  0  0  0  0
    4.4552  -27.7748   -7.8965 H   0  0  0  0  0  0  0  0  0  0  0  0
    9.0756  -23.2504  -10.9293 H   0  0  0  0  0  0  0  0  0  0  0  0
    6.8060  -24.0588   -9.8441 H   0  0  0  0  0  0  0  0  0  0  0  0
   15.8854  -28.1609  -11.3766 H   0  0  0  0  0  0  0  0  0  0  0  0
    7.0869  -32.2909   -8.8086 H   0  0  0  0  0  0  0  0  0  0  0  0
   11.6341  -29.0665   -9.6184 H   0  0  0  0  0  0  0  0  0  0  0  0
    3.4978  -29.6743   -7.3063 H   0  0  0  0  0  0  0  0  0  0  0  0
    6.4012  -23.6387  -13.2241 H   0  0  0  0  0  0  0  0  0  0  0  0
    8.8411  -22.1753   -7.6288 H   0  0  0  0  0  0  0  0  0  0  0  0
  1  3  2  0  0  0  0
  1  7  1  0  0  0  0
  2  4  2  0  0  0  0
  2  8  1  0  0  0  0
  3  9  1  0  0  0  0
  4 10  1  0  0  0  0
  5  7  2  0  0  0  0
  5 11  1  0  0  0  0
  6  8  2  0  0  0  0
  6 12  1  0  0  0  0
  7 13  1  0  0  0  0
  8 14  1  0  0  0  0
  9 11  2  0  0  0  0
  9 23  1  0  0  0  0
 10 12  2  0  0  0  0
 10 24  1  0  0  0  0
 11 25  1  0  0  0  0
 12 26  1  0  0  0  0
 13 19  2  0  0  0  0
 13 29  1  0  0  0  0
 14 20  2  0  0  0  0
 14 30  1  0  0  0  0
 15 17  1  0  0  0  0
 15 21  2  0  0  0  0
 15 27  1  0  0  0  0
 16 18  1  0  0  0  0
 16 22  2  0  0  0  0
 16 28  1  0  0  0  0
 17 18  1  0  0  0  0
 17 29  1  0  0  0  0
 18 30  1  0  0  0  0
  1 31  1  0  0  0  0
  2 32  1  0  0  0  0
  3 33  1  0  0  0  0
  4 34  1  0  0  0  0
  5 35  1  0  0  0  0
  6 36  1  0  0  0  0
 17 37  1  0  0  0  0
 18 38  1  0  0  0  0
 23 39  1  0  0  0  0
 24 40  1  0  0  0  0
 25 41  1  0  0  0  0
 26 42  1  0  0  0  0
 27 43  1  0  0  0  0
 28 44  1  0  0  0  0
M  END
> <Hybrid2>
-4.424034118652344

> <Hybrid2>
-3.763223

$$$$
CHEMBL378373
  -OEChem-02152218483D

 38 39  0     0  0  0  0  0  0999 V2000
    9.4566  -25.4123  -10.6191 C   0  0  0  0  0  0  0  0  0  0  0  0
    8.1921  -25.2540  -10.0466 C   0  0  0  0  0  0  0  0  0  0  0  0
    9.2975  -27.7879  -10.2900 C   0  0  0  0  0  0  0  0  0  0  0  0
    5.5601  -27.2408   -8.6069 C   0  0  0  0  0  0  0  0  0  0  0  0
    8.0256  -27.6283   -9.7143 C   0  0  0  0  0  0  0  0  0  0  0  0
   10.0103  -26.6807  -10.7411 C   0  0  0  0  0  0  0  0  0  0  0  0
    6.0330  -28.5348   -8.6883 C   0  0  0  0  0  0  0  0  0  0  0  0
    7.4572  -26.3435   -9.5873 C   0  0  0  0  0  0  0  0  0  0  0  0
    7.2864  -28.7254   -9.2519 C   0  0  0  0  0  0  0  0  0  0  0  0
   12.3636  -27.4036  -10.6601 C   0  0  0  0  0  0  0  0  0  0  0  0
    3.9925  -29.9144   -8.6914 C   0  0  0  0  0  0  0  0  0  0  0  0
   11.3264  -26.8491  -11.3365 C   0  0  0  0  0  0  0  0  0  0  0  0
    5.2244  -29.6370   -8.1942 C   0  0  0  0  0  0  0  0  0  0  0  0
   13.7225  -27.5886  -11.2238 C   0  0  0  0  0  0  0  0  0  0  0  0
    3.1307  -31.0225   -8.2140 C   0  0  0  0  0  0  0  0  0  0  0  0
   14.7311  -28.2212  -10.3162 C   0  0  0  0  0  0  0  0  0  0  0  0
    1.8035  -31.1633   -8.8923 C   0  0  0  0  0  0  0  0  0  0  0  0
    6.2411  -26.1554   -9.0408 N   0  0  0  0  0  0  0  0  0  0  0  0
   14.0921  -27.2534  -12.3364 O   0  0  0  0  0  0  0  0  0  0  0  0
    3.3932  -31.8023   -7.3142 O   0  0  0  0  0  0  0  0  0  0  0  0
   14.4579  -28.5629   -9.1839 O   0  0  0  0  0  0  0  0  0  0  0  0
    1.4485  -30.4159   -9.7805 O   0  0  0  0  0  0  0  0  0  0  0  0
    7.7901  -29.9927   -9.3500 O   0  0  0  0  0  0  0  0  0  0  0  0
   11.4374  -26.3797  -12.6384 O   0  0  0  0  0  0  0  0  0  0  0  0
    5.8045  -30.3653   -7.1639 O   0  0  0  0  0  0  0  0  0  0  0  0
   15.9124  -28.2989  -10.9435 O   0  0  0  0  0  0  0  0  0  0  0  0
    1.1251  -32.1800   -8.3437 O   0  0  0  0  0  0  0  0  0  0  0  0
    9.9945  -24.5323  -10.9632 H   0  0  0  0  0  0  0  0  0  0  0  0
    7.7808  -24.2497   -9.9616 H   0  0  0  0  0  0  0  0  0  0  0  0
    9.7384  -28.7785  -10.3893 H   0  0  0  0  0  0  0  0  0  0  0  0
    4.5879  -27.0148   -8.1777 H   0  0  0  0  0  0  0  0  0  0  0  0
   12.2300  -27.7375   -9.6346 H   0  0  0  0  0  0  0  0  0  0  0  0
    3.5742  -29.3013   -9.4852 H   0  0  0  0  0  0  0  0  0  0  0  0
    8.6667  -29.9687   -9.7607 H   0  0  0  0  0  0  0  0  0  0  0  0
   12.3312  -26.5279  -12.9550 H   0  0  0  0  0  0  0  0  0  0  0  0
    5.2093  -31.0694   -6.8979 H   0  0  0  0  0  0  0  0  0  0  0  0
   16.6106  -28.6873  -10.3744 H   0  0  0  0  0  0  0  0  0  0  0  0
    0.2368  -32.2931   -8.7441 H   0  0  0  0  0  0  0  0  0  0  0  0
  1  2  2  0  0  0  0
  1  6  1  0  0  0  0
  2  8  1  0  0  0  0
  3  5  1  0  0  0  0
  3  6  2  0  0  0  0
  4  7  1  0  0  0  0
  4 18  2  0  0  0  0
  5  8  2  0  0  0  0
  5  9  1  0  0  0  0
  6 12  1  0  0  0  0
  7  9  2  0  0  0  0
  7 13  1  0  0  0  0
  8 18  1  0  0  0  0
  9 23  1  0  0  0  0
 10 12  2  0  0  0  0
 10 14  1  0  0  0  0
 11 13  2  0  0  0  0
 11 15  1  0  0  0  0
 12 24  1  0  0  0  0
 13 25  1  0  0  0  0
 14 16  1  0  0  0  0
 14 19  2  0  0  0  0
 15 17  1  0  0  0  0
 15 20  2  0  0  0  0
 16 21  2  0  0  0  0
 16 26  1  0  0  0  0
 17 22  2  0  0  0  0
 17 27  1  0  0  0  0
  1 28  1  0  0  0  0
  2 29  1  0  0  0  0
  3 30  1  0  0  0  0
  4 31  1  0  0  0  0
 10 32  1  0  0  0  0
 11 33  1  0  0  0  0
 23 34  1  0  0  0  0
 24 35  1  0  0  0  0
 25 36  1  0  0  0  0
 26 37  1  0  0  0  0
 27 38  1  0  0  0  0
M  END
> <Hybrid2>
-6.348083019256592

> <Hybrid2>
-6.348083

$$$$
CHEMBL378373
  -OEChem-02152218483D

 38 39  0     0  0  0  0  0  0999 V2000
    9.8537  -25.1319  -10.4794 C   0  0  0  0  0  0  0  0  0  0  0  0
    8.5669  -24.9113   -9.9822 C   0  0  0  0  0  0  0  0  0  0  0  0
    9.5482  -27.4987  -10.1930 C   0  0  0  0  0  0  0  0  0  0  0  0
    5.7496  -26.7676   -8.7314 C   0  0  0  0  0  0  0  0  0  0  0  0
    8.2539  -27.2765   -9.6930 C   0  0  0  0  0  0  0  0  0  0  0  0
   10.3454  -26.4271  -10.5851 C   0  0  0  0  0  0  0  0  0  0  0  0
    6.1568  -28.0844   -8.8018 C   0  0  0  0  0  0  0  0  0  0  0  0
    7.7482  -25.9642   -9.5831 C   0  0  0  0  0  0  0  0  0  0  0  0
    7.4302  -28.3367   -9.2912 C   0  0  0  0  0  0  0  0  0  0  0  0
   12.6473  -27.2772  -10.3720 C   0  0  0  0  0  0  0  0  0  0  0  0
    4.0495  -29.3514   -8.9470 C   0  0  0  0  0  0  0  0  0  0  0  0
   11.6845  -26.6603  -11.1021 C   0  0  0  0  0  0  0  0  0  0  0  0
    5.2618  -29.1463   -8.3725 C   0  0  0  0  0  0  0  0  0  0  0  0
   14.0263  -27.5295  -10.8551 C   0  0  0  0  0  0  0  0  0  0  0  0
    3.1022  -30.4161   -8.5377 C   0  0  0  0  0  0  0  0  0  0  0  0
   14.9424  -28.2252   -9.8969 C   0  0  0  0  0  0  0  0  0  0  0  0
    1.8133  -30.4778   -9.2968 C   0  0  0  0  0  0  0  0  0  0  0  0
    6.5128  -25.7162   -9.1084 N   0  0  0  0  0  0  0  0  0  0  0  0
   14.4805  -27.2033  -11.9386 O   0  0  0  0  0  0  0  0  0  0  0  0
    3.2673  -31.2183   -7.6344 O   0  0  0  0  0  0  0  0  0  0  0  0
   14.5827  -28.5634   -8.7880 O   0  0  0  0  0  0  0  0  0  0  0  0
    1.5536  -29.7030  -10.1944 O   0  0  0  0  0  0  0  0  0  0  0  0
    7.8706  -29.6283   -9.3760 O   0  0  0  0  0  0  0  0  0  0  0  0
   11.8996  -26.1840  -12.3884 O   0  0  0  0  0  0  0  0  0  0  0  0
    5.7382  -29.9156   -7.3191 O   0  0  0  0  0  0  0  0  0  0  0  0
   16.1539  -28.3603  -10.4527 O   0  0  0  0  0  0  0  0  0  0  0  0
    1.0494  -31.4619   -8.8041 O   0  0  0  0  0  0  0  0  0  0  0  0
   10.4579  -24.2788  -10.7783 H   0  0  0  0  0  0  0  0  0  0  0  0
    8.2054  -23.8871   -9.9084 H   0  0  0  0  0  0  0  0  0  0  0  0
    9.9407  -28.5106  -10.2790 H   0  0  0  0  0  0  0  0  0  0  0  0
    4.7664  -26.4938   -8.3586 H   0  0  0  0  0  0  0  0  0  0  0  0
   12.4337  -27.6140   -9.3611 H   0  0  0  0  0  0  0  0  0  0  0  0
    3.7138  -28.7083   -9.7561 H   0  0  0  0  0  0  0  0  0  0  0  0
    8.7707  -29.6476   -9.7327 H   0  0  0  0  0  0  0  0  0  0  0  0
   12.8019  -26.3772  -12.6524 H   0  0  0  0  0  0  0  0  0  0  0  0
    5.0911  -30.5892   -7.0992 H   0  0  0  0  0  0  0  0  0  0  0  0
   16.7943  -28.7918   -9.8478 H   0  0  0  0  0  0  0  0  0  0  0  0
    0.1824  -31.5226   -9.2589 H   0  0  0  0  0  0  0  0  0  0  0  0
  1  2  2  0  0  0  0
  1  6  1  0  0  0  0
  2  8  1  0  0  0  0
  3  5  1  0  0  0  0
  3  6  2  0  0  0  0
  4  7  1  0  0  0  0
  4 18  2  0  0  0  0
  5  8  2  0  0  0  0
  5  9  1  0  0  0  0
  6 12  1  0  0  0  0
  7  9  2  0  0  0  0
  7 13  1  0  0  0  0
  8 18  1  0  0  0  0
  9 23  1  0  0  0  0
 10 12  2  0  0  0  0
 10 14  1  0  0  0  0
 11 13  2  0  0  0  0
 11 15  1  0  0  0  0
 12 24  1  0  0  0  0
 13 25  1  0  0  0  0
 14 16  1  0  0  0  0
 14 19  2  0  0  0  0
 15 17  1  0  0  0  0
 15 20  2  0  0  0  0
 16 21  2  0  0  0  0
 16 26  1  0  0  0  0
 17 22  2  0  0  0  0
 17 27  1  0  0  0  0
  1 28  1  0  0  0  0
  2 29  1  0  0  0  0
  3 30  1  0  0  0  0
  4 31  1  0  0  0  0
 10 32  1  0  0  0  0
 11 33  1  0  0  0  0
 23 34  1  0  0  0  0
 24 35  1  0  0  0  0
 25 36  1  0  0  0  0
 26 37  1  0  0  0  0
 27 38  1  0  0  0  0
M  END
> <Hybrid2>
-6.348083019256592

> <Hybrid2>
-6.065987

$$$$
CHEMBL321391
  -OEChem-02152218483D

 45 47  0     0  0  0  0  0  0999 V2000
    7.1600  -30.8213  -10.3448 C   0  0  0  0  0  0  0  0  0  0  0  0
    7.1362  -31.6527   -9.2251 C   0  0  0  0  0  0  0  0  0  0  0  0
    6.7366  -29.4965  -10.2390 C   0  0  0  0  0  0  0  0  0  0  0  0
   11.7180  -25.9925   -9.4169 C   0  0  0  0  0  0  0  0  0  0  0  0
    6.6889  -31.1593   -7.9995 C   0  0  0  0  0  0  0  0  0  0  0  0
   12.8339  -26.8009   -9.6334 C   0  0  0  0  0  0  0  0  0  0  0  0
   11.1247  -26.1864  -11.7508 C   0  0  0  0  0  0  0  0  0  0  0  0
   10.8633  -25.6853  -10.4756 C   0  0  0  0  0  0  0  0  0  0  0  0
    6.2893  -29.0030   -9.0134 C   0  0  0  0  0  0  0  0  0  0  0  0
    6.2655  -29.8344   -7.8936 C   0  0  0  0  0  0  0  0  0  0  0  0
   13.0952  -27.3020  -10.9086 C   0  0  0  0  0  0  0  0  0  0  0  0
   12.2406  -26.9948  -11.9674 C   0  0  0  0  0  0  0  0  0  0  0  0
    8.5160  -25.3011   -9.8778 C   0  0  0  0  0  0  0  0  0  0  0  0
    7.2974  -24.5314   -9.6287 C   0  0  0  0  0  0  0  0  0  0  0  0
    8.1549  -26.7084   -9.6348 C   0  0  0  0  0  0  0  0  0  0  0  0
    9.7130  -24.8550  -10.2519 C   0  0  0  0  0  0  0  0  0  0  0  0
    5.8473  -27.6029   -8.9239 C   0  0  0  0  0  0  0  0  0  0  0  0
    7.2017  -23.0505   -9.7696 C   0  0  0  0  0  0  0  0  0  0  0  0
   15.4040  -27.4350  -11.4633 C   0  0  0  0  0  0  0  0  0  0  0  0
   11.5652  -27.1176  -14.2443 C   0  0  0  0  0  0  0  0  0  0  0  0
    6.3058  -25.3003   -9.2723 N   0  0  0  0  0  0  0  0  0  0  0  0
    6.7879  -26.6120   -9.2455 N   0  0  0  0  0  0  0  0  0  0  0  0
    8.8838  -27.6728   -9.7656 O   0  0  0  0  0  0  0  0  0  0  0  0
    4.6808  -27.3917   -8.5983 O   0  0  0  0  0  0  0  0  0  0  0  0
    5.8337  -29.3702   -6.6870 O   0  0  0  0  0  0  0  0  0  0  0  0
   14.1884  -28.0903  -11.1067 O   0  0  0  0  0  0  0  0  0  0  0  0
   12.4867  -27.4780  -13.2171 O   0  0  0  0  0  0  0  0  0  0  0  0
    7.5084  -31.2060  -11.2992 H   0  0  0  0  0  0  0  0  0  0  0  0
    7.4654  -32.6843   -9.3083 H   0  0  0  0  0  0  0  0  0  0  0  0
    6.7600  -28.8576  -11.1182 H   0  0  0  0  0  0  0  0  0  0  0  0
   11.5266  -25.6101   -8.4171 H   0  0  0  0  0  0  0  0  0  0  0  0
    6.6730  -31.8122   -7.1310 H   0  0  0  0  0  0  0  0  0  0  0  0
   13.4958  -27.0362   -8.8043 H   0  0  0  0  0  0  0  0  0  0  0  0
   10.4632  -25.9522  -12.5821 H   0  0  0  0  0  0  0  0  0  0  0  0
    9.8389  -23.7774  -10.3723 H   0  0  0  0  0  0  0  0  0  0  0  0
    6.9069  -22.7917  -10.7874 H   0  0  0  0  0  0  0  0  0  0  0  0
    8.1671  -22.5920   -9.5497 H   0  0  0  0  0  0  0  0  0  0  0  0
    6.4609  -22.6571   -9.0719 H   0  0  0  0  0  0  0  0  0  0  0  0
   16.1952  -28.1777  -11.5913 H   0  0  0  0  0  0  0  0  0  0  0  0
   15.6796  -26.7248  -10.6796 H   0  0  0  0  0  0  0  0  0  0  0  0
   15.2559  -26.8980  -12.4032 H   0  0  0  0  0  0  0  0  0  0  0  0
   11.8776  -27.5682  -15.1896 H   0  0  0  0  0  0  0  0  0  0  0  0
   11.5324  -26.0294  -14.3403 H   0  0  0  0  0  0  0  0  0  0  0  0
   10.5726  -27.4879  -13.9773 H   0  0  0  0  0  0  0  0  0  0  0  0
    5.8834  -30.0733   -6.0209 H   0  0  0  0  0  0  0  0  0  0  0  0
  1  2  1  0  0  0  0
  1  3  2  0  0  0  0
  2  5  2  0  0  0  0
  3  9  1  0  0  0  0
  4  6  2  0  0  0  0
  4  8  1  0  0  0  0
  5 10  1  0  0  0  0
  6 11  1  0  0  0  0
  7  8  2  0  0  0  0
  7 12  1  0  0  0  0
  8 16  1  0  0  0  0
  9 10  2  0  0  0  0
  9 17  1  0  0  0  0
 10 25  1  0  0  0  0
 11 12  2  0  0  0  0
 11 26  1  0  0  0  0
 12 27  1  0  0  0  0
 13 14  1  0  0  0  0
 13 15  1  0  0  0  0
 13 16  2  0  0  0  0
 14 18  1  0  0  0  0
 14 21  2  0  0  0  0
 15 22  1  0  0  0  0
 15 23  2  0  0  0  0
 17 22  1  0  0  0  0
 17 24  2  0  0  0  0
 19 26  1  0  0  0  0
 20 27  1  0  0  0  0
 21 22  1  0  0  0  0
  1 28  1  0  0  0  0
  2 29  1  0  0  0  0
  3 30  1  0  0  0  0
  4 31  1  0  0  0  0
  5 32  1  0  0  0  0
  6 33  1  0  0  0  0
  7 34  1  0  0  0  0
 16 35  1  0  0  0  0
 18 36  1  0  0  0  0
 18 37  1  0  0  0  0
 18 38  1  0  0  0  0
 19 39  1  0  0  0  0
 19 40  1  0  0  0  0
 19 41  1  0  0  0  0
 20 42  1  0  0  0  0
 20 43  1  0  0  0  0
 20 44  1  0  0  0  0
 25 45  1  0  0  0  0
M  END
> <Hybrid2>
-3.272827386856079

> <Hybrid2>
-3.272827

$$$$
CHEMBL321391
  -OEChem-02152218483D

 45 47  0     0  0  0  0  0  0999 V2000
    7.3209  -30.8662  -10.4694 C   0  0  0  0  0  0  0  0  0  0  0  0
    7.3350  -31.7564   -9.3957 C   0  0  0  0  0  0  0  0  0  0  0  0
    6.8860  -29.5542  -10.2819 C   0  0  0  0  0  0  0  0  0  0  0  0
   11.8484  -26.0382   -9.3985 C   0  0  0  0  0  0  0  0  0  0  0  0
    6.9142  -31.3347   -8.1345 C   0  0  0  0  0  0  0  0  0  0  0  0
   12.9671  -26.8202   -9.6862 C   0  0  0  0  0  0  0  0  0  0  0  0
   11.1971  -26.1144  -11.7238 C   0  0  0  0  0  0  0  0  0  0  0  0
   10.9634  -25.6854  -10.4173 C   0  0  0  0  0  0  0  0  0  0  0  0
    6.4651  -29.1324   -9.0206 C   0  0  0  0  0  0  0  0  0  0  0  0
    6.4792  -30.0227   -7.9469 C   0  0  0  0  0  0  0  0  0  0  0  0
   13.2008  -27.2492  -10.9927 C   0  0  0  0  0  0  0  0  0  0  0  0
   12.3158  -26.8963  -12.0115 C   0  0  0  0  0  0  0  0  0  0  0  0
    8.6282  -25.3625   -9.7407 C   0  0  0  0  0  0  0  0  0  0  0  0
    7.4082  -24.6223   -9.4200 C   0  0  0  0  0  0  0  0  0  0  0  0
    8.2889  -26.7852   -9.5647 C   0  0  0  0  0  0  0  0  0  0  0  0
    9.8102  -24.8825  -10.1204 C   0  0  0  0  0  0  0  0  0  0  0  0
    6.0103  -27.7446   -8.8449 C   0  0  0  0  0  0  0  0  0  0  0  0
    7.2928  -23.1373   -9.4787 C   0  0  0  0  0  0  0  0  0  0  0  0
   15.4958  -27.3240  -11.6118 C   0  0  0  0  0  0  0  0  0  0  0  0
   11.5832  -26.9056  -14.2741 C   0  0  0  0  0  0  0  0  0  0  0  0
    6.4345  -25.4213   -9.0805 N   0  0  0  0  0  0  0  0  0  0  0  0
    6.9314  -26.7265   -9.1364 N   0  0  0  0  0  0  0  0  0  0  0  0
    9.0247  -27.7322   -9.7654 O   0  0  0  0  0  0  0  0  0  0  0  0
    4.8504  -27.5654   -8.4791 O   0  0  0  0  0  0  0  0  0  0  0  0
    6.0737  -29.6289   -6.7066 O   0  0  0  0  0  0  0  0  0  0  0  0
   14.2970  -28.0123  -11.2604 O   0  0  0  0  0  0  0  0  0  0  0  0
   12.5348  -27.3090  -13.2913 O   0  0  0  0  0  0  0  0  0  0  0  0
    7.6487  -31.1950  -11.4515 H   0  0  0  0  0  0  0  0  0  0  0  0
    7.6732  -32.7779   -9.5425 H   0  0  0  0  0  0  0  0  0  0  0  0
    6.8797  -28.8690  -11.1258 H   0  0  0  0  0  0  0  0  0  0  0  0
   11.6788  -25.7122   -8.3752 H   0  0  0  0  0  0  0  0  0  0  0  0
    6.9279  -32.0332   -7.3022 H   0  0  0  0  0  0  0  0  0  0  0  0
   13.6527  -27.0913   -8.8879 H   0  0  0  0  0  0  0  0  0  0  0  0
   10.5119  -25.8443  -12.5244 H   0  0  0  0  0  0  0  0  0  0  0  0
    9.9213  -23.7985  -10.1858 H   0  0  0  0  0  0  0  0  0  0  0  0
    6.9689  -22.8281  -10.4734 H   0  0  0  0  0  0  0  0  0  0  0  0
    8.2584  -22.6794   -9.2589 H   0  0  0  0  0  0  0  0  0  0  0  0
    6.5660  -22.7908   -8.7424 H   0  0  0  0  0  0  0  0  0  0  0  0
   16.2915  -28.0491  -11.7995 H   0  0  0  0  0  0  0  0  0  0  0  0
   15.7838  -26.6534  -10.7983 H   0  0  0  0  0  0  0  0  0  0  0  0
   15.3176  -26.7395  -12.5175 H   0  0  0  0  0  0  0  0  0  0  0  0
   11.8760  -27.3012  -15.2497 H   0  0  0  0  0  0  0  0  0  0  0  0
   11.5361  -25.8143  -14.3106 H   0  0  0  0  0  0  0  0  0  0  0  0
   10.6019  -27.3018  -14.0024 H   0  0  0  0  0  0  0  0  0  0  0  0
    6.1483  -30.3660   -6.0807 H   0  0  0  0  0  0  0  0  0  0  0  0
  1  2  1  0  0  0  0
  1  3  2  0  0  0  0
  2  5  2  0  0  0  0
  3  9  1  0  0  0  0
  4  6  2  0  0  0  0
  4  8  1  0  0  0  0
  5 10  1  0  0  0  0
  6 11  1  0  0  0  0
  7  8  2  0  0  0  0
  7 12  1  0  0  0  0
  8 16  1  0  0  0  0
  9 10  2  0  0  0  0
  9 17  1  0  0  0  0
 10 25  1  0  0  0  0
 11 12  2  0  0  0  0
 11 26  1  0  0  0  0
 12 27  1  0  0  0  0
 13 14  1  0  0  0  0
 13 15  1  0  0  0  0
 13 16  2  0  0  0  0
 14 18  1  0  0  0  0
 14 21  2  0  0  0  0
 15 22  1  0  0  0  0
 15 23  2  0  0  0  0
 17 22  1  0  0  0  0
 17 24  2  0  0  0  0
 19 26  1  0  0  0  0
 20 27  1  0  0  0  0
 21 22  1  0  0  0  0
  1 28  1  0  0  0  0
  2 29  1  0  0  0  0
  3 30  1  0  0  0  0
  4 31  1  0  0  0  0
  5 32  1  0  0  0  0
  6 33  1  0  0  0  0
  7 34  1  0  0  0  0
 16 35  1  0  0  0  0
 18 36  1  0  0  0  0
 18 37  1  0  0  0  0
 18 38  1  0  0  0  0
 19 39  1  0  0  0  0
 19 40  1  0  0  0  0
 19 41  1  0  0  0  0
 20 42  1  0  0  0  0
 20 43  1  0  0  0  0
 20 44  1  0  0  0  0
 25 45  1  0  0  0  0
M  END
> <Hybrid2>
-3.272827386856079

> <Hybrid2>
-3.128770

$$$$
CHEMBL553067
  -OEChem-02152218483D

 77 80  0     1  0  0  0  0  0999 V2000
   14.9128  -25.4982  -10.8794 C   0  0  0  0  0  0  0  0  0  0  0  0
   13.9854  -26.2867  -11.5584 C   0  0  0  0  0  0  0  0  0  0  0  0
   14.4945  -24.3488  -10.2255 C   0  0  0  0  0  0  0  0  0  0  0  0
   12.1965  -24.7577  -10.9427 C   0  0  0  0  0  0  0  0  0  0  0  0
   12.6199  -25.9442  -11.5923 C   0  0  0  0  0  0  0  0  0  0  0  0
   13.1490  -23.9831  -10.2539 C   0  0  0  0  0  0  0  0  0  0  0  0
   10.7605  -24.3963  -10.9305 C   0  0  0  0  0  0  0  0  0  0  0  0
    5.6618  -26.9847   -9.2170 C   0  0  0  0  0  0  0  0  0  0  0  0
    9.8538  -25.3128  -11.2936 C   0  0  0  0  0  0  0  0  0  0  0  0
    6.4807  -25.9453   -9.4823 C   0  0  0  0  0  0  0  0  0  0  0  0
    6.2161  -28.3807   -9.2196 C   0  0  0  0  0  0  0  0  0  0  0  0
    8.4216  -25.1087  -10.9369 C   0  0  0  0  0  0  0  0  0  0  0  0
    4.2397  -26.7726   -8.8931 C   0  0  0  0  0  0  0  0  0  0  0  0
    9.7450  -27.7012  -10.7517 C   0  0  0  0  0  0  0  0  0  0  0  0
   10.1622  -26.6801  -11.8332 C   0  0  2  0  0  0  0  0  0  0  0  0
    7.9283  -26.1157   -9.8867 C   0  0  2  0  0  0  0  0  0  0  0  0
    7.7185  -28.5642   -9.4043 C   0  0  2  0  0  0  0  0  0  0  0  0
    8.2343  -27.5378  -10.4174 C   0  0  2  0  0  0  0  0  0  0  0  0
   11.6158  -26.7765  -12.3871 C   0  0  2  0  0  0  0  0  0  0  0  0
   12.8264  -22.7036   -9.5409 C   0  0  0  0  0  0  0  0  0  0  0  0
   12.0201  -28.2427  -12.6134 C   0  0  0  0  0  0  0  0  0  0  0  0
    7.2686  -30.1776  -11.1263 C   0  0  0  0  0  0  0  0  0  0  0  0
    7.5124  -30.8913   -8.8451 C   0  0  0  0  0  0  0  0  0  0  0  0
   -0.4318  -27.1589   -8.1277 C   0  0  0  0  0  0  0  0  0  0  0  0
   -0.5438  -28.6353  -10.1822 C   0  0  0  0  0  0  0  0  0  0  0  0
   -0.3700  -29.6773   -7.8736 C   0  0  0  0  0  0  0  0  0  0  0  0
    1.9435  -27.3369   -9.6744 C   0  0  0  0  0  0  0  0  0  0  0  0
    0.0428  -28.4840   -8.7611 C   0  0  0  0  0  0  0  0  0  0  0  0
    3.3888  -27.3976   -9.7856 N   0  0  0  0  0  0  0  0  0  0  0  0
    1.4958  -28.4562   -8.8555 N   0  0  0  0  0  0  0  0  0  0  0  0
    7.9549  -29.9340   -9.8582 N   0  0  0  0  0  0  0  0  0  0  0  0
    5.4623  -29.3328   -9.0138 O   0  0  0  0  0  0  0  0  0  0  0  0
    7.7623  -24.2067  -11.4369 O   0  0  0  0  0  0  0  0  0  0  0  0
    3.9099  -26.1036   -7.9180 O   0  0  0  0  0  0  0  0  0  0  0  0
   10.3800  -23.1731  -10.4153 O   0  0  0  0  0  0  0  0  0  0  0  0
    6.1066  -24.6197   -9.3473 O   0  0  0  0  0  0  0  0  0  0  0  0
   11.5714  -26.1811  -13.7038 O   0  0  0  0  0  0  0  0  0  0  0  0
   -1.7489  -27.2906   -7.6034 O   0  0  0  0  0  0  0  0  0  0  0  0
   -1.8870  -29.1061  -10.1563 O   0  0  0  0  0  0  0  0  0  0  0  0
    0.0547  -30.9081   -8.4502 O   0  0  0  0  0  0  0  0  0  0  0  0
   15.9596  -25.7880  -10.8590 H   0  0  0  0  0  0  0  0  0  0  0  0
   14.3415  -27.1881  -12.0564 H   0  0  0  0  0  0  0  0  0  0  0  0
   15.2248  -23.7406   -9.6979 H   0  0  0  0  0  0  0  0  0  0  0  0
    9.9384  -28.7007  -11.1224 H   0  0  0  0  0  0  0  0  0  0  0  0
   10.3015  -27.5624   -9.8319 H   0  0  0  0  0  0  0  0  0  0  0  0
    9.4538  -26.8137  -12.6502 H   0  0  0  0  0  0  0  0  0  0  0  0
    8.5255  -25.9277   -8.9626 H   0  0  0  0  0  0  0  0  0  0  0  0
    8.1988  -28.4255   -8.4274 H   0  0  0  0  0  0  0  0  0  0  0  0
    7.6638  -27.6934  -11.3627 H   0  0  0  0  0  0  0  0  0  0  0  0
   12.9066  -21.8583  -10.2315 H   0  0  0  0  0  0  0  0  0  0  0  0
   11.8112  -22.7298   -9.1306 H   0  0  0  0  0  0  0  0  0  0  0  0
   13.5103  -22.5402   -8.7010 H   0  0  0  0  0  0  0  0  0  0  0  0
   11.2447  -28.7425  -13.1838 H   0  0  0  0  0  0  0  0  0  0  0  0
   12.1410  -28.7316  -11.6529 H   0  0  0  0  0  0  0  0  0  0  0  0
   12.9558  -28.2741  -13.1611 H   0  0  0  0  0  0  0  0  0  0  0  0
    7.4566  -31.2110  -11.4530 H   0  0  0  0  0  0  0  0  0  0  0  0
    6.1873  -30.0263  -10.9928 H   0  0  0  0  0  0  0  0  0  0  0  0
    7.6455  -29.4783  -11.8872 H   0  0  0  0  0  0  0  0  0  0  0  0
    7.6971  -31.9153   -9.2019 H   0  0  0  0  0  0  0  0  0  0  0  0
    8.0703  -30.7219   -7.9123 H   0  0  0  0  0  0  0  0  0  0  0  0
    6.4367  -30.7566   -8.6585 H   0  0  0  0  0  0  0  0  0  0  0  0
    0.2295  -26.8688   -7.3036 H   0  0  0  0  0  0  0  0  0  0  0  0
   -0.4478  -26.3465   -8.8628 H   0  0  0  0  0  0  0  0  0  0  0  0
    0.0331  -29.3541  -10.7742 H   0  0  0  0  0  0  0  0  0  0  0  0
   -0.5311  -27.6793  -10.7180 H   0  0  0  0  0  0  0  0  0  0  0  0
   -1.4575  -29.7284   -7.7525 H   0  0  0  0  0  0  0  0  0  0  0  0
    0.0887  -29.5959   -6.8820 H   0  0  0  0  0  0  0  0  0  0  0  0
    1.5423  -27.4061  -10.6906 H   0  0  0  0  0  0  0  0  0  0  0  0
    1.6542  -26.3767   -9.2336 H   0  0  0  0  0  0  0  0  0  0  0  0
    3.7941  -27.9235  -10.5545 H   0  0  0  0  0  0  0  0  0  0  0  0
    1.8231  -29.3268   -9.2727 H   0  0  0  0  0  0  0  0  0  0  0  0
    9.4238  -23.0772  -10.4728 H   0  0  0  0  0  0  0  0  0  0  0  0
    6.8438  -24.0544   -9.5889 H   0  0  0  0  0  0  0  0  0  0  0  0
   10.9365  -26.7043  -14.2126 H   0  0  0  0  0  0  0  0  0  0  0  0
   -1.9839  -26.4295   -7.2234 H   0  0  0  0  0  0  0  0  0  0  0  0
   -2.1761  -29.1722  -11.0801 H   0  0  0  0  0  0  0  0  0  0  0  0
   -0.2341  -31.6111   -7.8474 H   0  0  0  0  0  0  0  0  0  0  0  0
  1  2  2  0  0  0  0
  1  3  1  0  0  0  0
  2  5  1  0  0  0  0
  3  6  2  0  0  0  0
  4  5  2  0  0  0  0
  4  6  1  0  0  0  0
  4  7  1  0  0  0  0
  5 19  1  0  0  0  0
  6 20  1  0  0  0  0
  7  9  2  0  0  0  0
  7 35  1  0  0  0  0
  8 10  2  0  0  0  0
  8 11  1  0  0  0  0
  8 13  1  0  0  0  0
  9 12  1  0  0  0  0
  9 15  1  0  0  0  0
 10 16  1  0  0  0  0
 10 36  1  0  0  0  0
 11 17  1  0  0  0  0
 11 32  2  0  0  0  0
 12 16  1  0  0  0  0
 12 33  2  0  0  0  0
 13 29  1  0  0  0  0
 13 34  2  0  0  0  0
 14 15  1  0  0  0  0
 14 18  1  0  0  0  0
 15 19  1  0  0  0  0
 16 18  1  0  0  0  0
 17 18  1  0  0  0  0
 17 31  1  0  0  0  0
 19 21  1  0  0  0  0
 19 37  1  0  0  0  0
 22 31  1  0  0  0  0
 23 31  1  0  0  0  0
 24 28  1  0  0  0  0
 24 38  1  0  0  0  0
 25 28  1  0  0  0  0
 25 39  1  0  0  0  0
 26 28  1  0  0  0  0
 26 40  1  0  0  0  0
 27 29  1  0  0  0  0
 27 30  1  0  0  0  0
 28 30  1  0  0  0  0
  1 41  1  0  0  0  0
  2 42  1  0  0  0  0
  3 43  1  0  0  0  0
 14 44  1  0  0  0  0
 14 45  1  0  0  0  0
 15 46  1  0  0  0  0
 16 47  1  0  0  0  0
 17 48  1  0  0  0  0
 18 49  1  0  0  0  0
 20 50  1  0  0  0  0
 20 51  1  0  0  0  0
 20 52  1  0  0  0  0
 21 53  1  0  0  0  0
 21 54  1  0  0  0  0
 21 55  1  0  0  0  0
 22 56  1  0  0  0  0
 22 57  1  0  0  0  0
 22 58  1  0  0  0  0
 23 59  1  0  0  0  0
 23 60  1  0  0  0  0
 23 61  1  0  0  0  0
 24 62  1  0  0  0  0
 24 63  1  0  0  0  0
 25 64  1  0  0  0  0
 25 65  1  0  0  0  0
 26 66  1  0  0  0  0
 26 67  1  0  0  0  0
 27 68  1  0  0  0  0
 27 69  1  0  0  0  0
 29 70  1  0  0  0  0
 30 71  1  0  0  0  0
 35 72  1  0  0  0  0
 36 73  1  0  0  0  0
 37 74  1  0  0  0  0
 38 75  1  0  0  0  0
 39 76  1  0  0  0  0
 40 77  1  0  0  0  0
M  END
> <Hybrid2>
-0.8271355628967285

> <Hybrid2>
-0.827136

$$$$
CHEMBL553067
  -OEChem-02152218483D

 77 80  0     1  0  0  0  0  0999 V2000
   14.9762  -25.8025  -10.7057 C   0  0  0  0  0  0  0  0  0  0  0  0
   14.0488  -26.5910  -11.3848 C   0  0  0  0  0  0  0  0  0  0  0  0
   14.5579  -24.6531  -10.0519 C   0  0  0  0  0  0  0  0  0  0  0  0
   12.2599  -25.0620  -10.7690 C   0  0  0  0  0  0  0  0  0  0  0  0
   12.6833  -26.2485  -11.4187 C   0  0  0  0  0  0  0  0  0  0  0  0
   13.2124  -24.2874  -10.0802 C   0  0  0  0  0  0  0  0  0  0  0  0
   10.8239  -24.7006  -10.7568 C   0  0  0  0  0  0  0  0  0  0  0  0
    5.7252  -27.2890   -9.0434 C   0  0  0  0  0  0  0  0  0  0  0  0
    9.9172  -25.6171  -11.1200 C   0  0  0  0  0  0  0  0  0  0  0  0
    6.5440  -26.2496   -9.3086 C   0  0  0  0  0  0  0  0  0  0  0  0
    6.2795  -28.6850   -9.0459 C   0  0  0  0  0  0  0  0  0  0  0  0
    8.4850  -25.4130  -10.7632 C   0  0  0  0  0  0  0  0  0  0  0  0
    4.3031  -27.0769   -8.7194 C   0  0  0  0  0  0  0  0  0  0  0  0
    9.8084  -28.0055  -10.5781 C   0  0  0  0  0  0  0  0  0  0  0  0
   10.2256  -26.9844  -11.6596 C   0  0  2  0  0  0  0  0  0  0  0  0
    7.9917  -26.4200   -9.7131 C   0  0  2  0  0  0  0  0  0  0  0  0
    7.7819  -28.8686   -9.2306 C   0  0  2  0  0  0  0  0  0  0  0  0
    8.2977  -27.8421  -10.2437 C   0  0  2  0  0  0  0  0  0  0  0  0
   11.6792  -27.0808  -12.2134 C   0  0  2  0  0  0  0  0  0  0  0  0
   12.8898  -23.0080   -9.3672 C   0  0  0  0  0  0  0  0  0  0  0  0
   12.0835  -28.5470  -12.4398 C   0  0  0  0  0  0  0  0  0  0  0  0
    7.3320  -30.4819  -10.9526 C   0  0  0  0  0  0  0  0  0  0  0  0
    7.5758  -31.1956   -8.6714 C   0  0  0  0  0  0  0  0  0  0  0  0
   -0.3684  -27.4632   -7.9541 C   0  0  0  0  0  0  0  0  0  0  0  0
   -0.4804  -28.9396  -10.0086 C   0  0  0  0  0  0  0  0  0  0  0  0
   -0.3066  -29.9816   -7.7000 C   0  0  0  0  0  0  0  0  0  0  0  0
    2.0069  -27.6412   -9.5007 C   0  0  0  0  0  0  0  0  0  0  0  0
    0.1062  -28.7883   -8.5874 C   0  0  0  0  0  0  0  0  0  0  0  0
    3.4522  -27.7020   -9.6120 N   0  0  0  0  0  0  0  0  0  0  0  0
    1.5592  -28.7606   -8.6818 N   0  0  0  0  0  0  0  0  0  0  0  0
    8.0183  -30.2384   -9.6845 N   0  0  0  0  0  0  0  0  0  0  0  0
    5.5257  -29.6371   -8.8402 O   0  0  0  0  0  0  0  0  0  0  0  0
    7.8257  -24.5110  -11.2633 O   0  0  0  0  0  0  0  0  0  0  0  0
    3.9733  -26.4079   -7.7443 O   0  0  0  0  0  0  0  0  0  0  0  0
   10.4434  -23.4774  -10.2416 O   0  0  0  0  0  0  0  0  0  0  0  0
    6.1700  -24.9241   -9.1737 O   0  0  0  0  0  0  0  0  0  0  0  0
   11.6348  -26.4854  -13.5302 O   0  0  0  0  0  0  0  0  0  0  0  0
   -1.6855  -27.5949   -7.4297 O   0  0  0  0  0  0  0  0  0  0  0  0
   -1.8236  -29.4104   -9.9827 O   0  0  0  0  0  0  0  0  0  0  0  0
    0.1181  -31.2124   -8.2766 O   0  0  0  0  0  0  0  0  0  0  0  0
   16.0230  -26.0923  -10.6853 H   0  0  0  0  0  0  0  0  0  0  0  0
   14.4049  -27.4924  -11.8828 H   0  0  0  0  0  0  0  0  0  0  0  0
   15.2882  -24.0449   -9.5243 H   0  0  0  0  0  0  0  0  0  0  0  0
   10.0018  -29.0050  -10.9488 H   0  0  0  0  0  0  0  0  0  0  0  0
   10.3649  -27.8667   -9.6583 H   0  0  0  0  0  0  0  0  0  0  0  0
    9.5172  -27.1180  -12.4766 H   0  0  0  0  0  0  0  0  0  0  0  0
    8.5889  -26.2320   -8.7890 H   0  0  0  0  0  0  0  0  0  0  0  0
    8.2622  -28.7298   -8.2537 H   0  0  0  0  0  0  0  0  0  0  0  0
    7.7272  -27.9978  -11.1891 H   0  0  0  0  0  0  0  0  0  0  0  0
   12.9700  -22.1627  -10.0578 H   0  0  0  0  0  0  0  0  0  0  0  0
   11.8746  -23.0341   -8.9569 H   0  0  0  0  0  0  0  0  0  0  0  0
   13.5737  -22.8445   -8.5273 H   0  0  0  0  0  0  0  0  0  0  0  0
   11.3081  -29.0468  -13.0102 H   0  0  0  0  0  0  0  0  0  0  0  0
   12.2044  -29.0360  -11.4792 H   0  0  0  0  0  0  0  0  0  0  0  0
   13.0192  -28.5785  -12.9874 H   0  0  0  0  0  0  0  0  0  0  0  0
    7.5200  -31.5153  -11.2793 H   0  0  0  0  0  0  0  0  0  0  0  0
    6.2507  -30.3306  -10.8192 H   0  0  0  0  0  0  0  0  0  0  0  0
    7.7089  -29.7826  -11.7135 H   0  0  0  0  0  0  0  0  0  0  0  0
    7.7605  -32.2196   -9.0283 H   0  0  0  0  0  0  0  0  0  0  0  0
    8.1337  -31.0263   -7.7387 H   0  0  0  0  0  0  0  0  0  0  0  0
    6.5001  -31.0609   -8.4849 H   0  0  0  0  0  0  0  0  0  0  0  0
    0.2929  -27.1731   -7.1299 H   0  0  0  0  0  0  0  0  0  0  0  0
   -0.3844  -26.6509   -8.6891 H   0  0  0  0  0  0  0  0  0  0  0  0
    0.0965  -29.6584  -10.6006 H   0  0  0  0  0  0  0  0  0  0  0  0
   -0.4677  -27.9836  -10.5443 H   0  0  0  0  0  0  0  0  0  0  0  0
   -1.3941  -30.0328   -7.5788 H   0  0  0  0  0  0  0  0  0  0  0  0
    0.1521  -29.9002   -6.7083 H   0  0  0  0  0  0  0  0  0  0  0  0
    1.6057  -27.7104  -10.5169 H   0  0  0  0  0  0  0  0  0  0  0  0
    1.7176  -26.6810   -9.0600 H   0  0  0  0  0  0  0  0  0  0  0  0
    3.8575  -28.2279  -10.3809 H   0  0  0  0  0  0  0  0  0  0  0  0
    1.8865  -29.6312   -9.0991 H   0  0  0  0  0  0  0  0  0  0  0  0
    9.4872  -23.3815  -10.2992 H   0  0  0  0  0  0  0  0  0  0  0  0
    6.9072  -24.3587   -9.4153 H   0  0  0  0  0  0  0  0  0  0  0  0
   10.9999  -27.0086  -14.0390 H   0  0  0  0  0  0  0  0  0  0  0  0
   -1.9206  -26.7338   -7.0497 H   0  0  0  0  0  0  0  0  0  0  0  0
   -2.1127  -29.4765  -10.9065 H   0  0  0  0  0  0  0  0  0  0  0  0
   -0.1707  -31.9154   -7.6737 H   0  0  0  0  0  0  0  0  0  0  0  0
  1  2  2  0  0  0  0
  1  3  1  0  0  0  0
  2  5  1  0  0  0  0
  3  6  2  0  0  0  0
  4  5  2  0  0  0  0
  4  6  1  0  0  0  0
  4  7  1  0  0  0  0
  5 19  1  0  0  0  0
  6 20  1  0  0  0  0
  7  9  2  0  0  0  0
  7 35  1  0  0  0  0
  8 10  2  0  0  0  0
  8 11  1  0  0  0  0
  8 13  1  0  0  0  0
  9 12  1  0  0  0  0
  9 15  1  0  0  0  0
 10 16  1  0  0  0  0
 10 36  1  0  0  0  0
 11 17  1  0  0  0  0
 11 32  2  0  0  0  0
 12 16  1  0  0  0  0
 12 33  2  0  0  0  0
 13 29  1  0  0  0  0
 13 34  2  0  0  0  0
 14 15  1  0  0  0  0
 14 18  1  0  0  0  0
 15 19  1  0  0  0  0
 16 18  1  0  0  0  0
 17 18  1  0  0  0  0
 17 31  1  0  0  0  0
 19 21  1  0  0  0  0
 19 37  1  0  0  0  0
 22 31  1  0  0  0  0
 23 31  1  0  0  0  0
 24 28  1  0  0  0  0
 24 38  1  0  0  0  0
 25 28  1  0  0  0  0
 25 39  1  0  0  0  0
 26 28  1  0  0  0  0
 26 40  1  0  0  0  0
 27 29  1  0  0  0  0
 27 30  1  0  0  0  0
 28 30  1  0  0  0  0
  1 41  1  0  0  0  0
  2 42  1  0  0  0  0
  3 43  1  0  0  0  0
 14 44  1  0  0  0  0
 14 45  1  0  0  0  0
 15 46  1  0  0  0  0
 16 47  1  0  0  0  0
 17 48  1  0  0  0  0
 18 49  1  0  0  0  0
 20 50  1  0  0  0  0
 20 51  1  0  0  0  0
 20 52  1  0  0  0  0
 21 53  1  0  0  0  0
 21 54  1  0  0  0  0
 21 55  1  0  0  0  0
 22 56  1  0  0  0  0
 22 57  1  0  0  0  0
 22 58  1  0  0  0  0
 23 59  1  0  0  0  0
 23 60  1  0  0  0  0
 23 61  1  0  0  0  0
 24 62  1  0  0  0  0
 24 63  1  0  0  0  0
 25 64  1  0  0  0  0
 25 65  1  0  0  0  0
 26 66  1  0  0  0  0
 26 67  1  0  0  0  0
 27 68  1  0  0  0  0
 27 69  1  0  0  0  0
 29 70  1  0  0  0  0
 30 71  1  0  0  0  0
 35 72  1  0  0  0  0
 36 73  1  0  0  0  0
 37 74  1  0  0  0  0
 38 75  1  0  0  0  0
 39 76  1  0  0  0  0
 40 77  1  0  0  0  0
M  END
> <Hybrid2>
-0.8271355628967285

> <Hybrid2>
-0.526801

$$$$
CHEMBL199874
  -OEChem-02152218483D

 35 36  0     0  0  0  0  0  0999 V2000
    4.4247  -30.4724   -9.7364 C   0  0  0  0  0  0  0  0  0  0  0  0
    4.3056  -29.8487   -8.4945 C   0  0  0  0  0  0  0  0  0  0  0  0
    5.6395  -30.4371  -10.4210 C   0  0  0  0  0  0  0  0  0  0  0  0
    5.4014  -29.1897   -7.9371 C   0  0  0  0  0  0  0  0  0  0  0  0
    6.7353  -29.7781   -9.8636 C   0  0  0  0  0  0  0  0  0  0  0  0
    6.6162  -29.1544   -8.6217 C   0  0  0  0  0  0  0  0  0  0  0  0
    9.4207  -27.5950   -9.6186 C   0  0  0  0  0  0  0  0  0  0  0  0
    9.9547  -26.6835  -10.4386 C   0  0  0  0  0  0  0  0  0  0  0  0
    9.3020  -25.3602  -10.5719 C   0  0  0  0  0  0  0  0  0  0  0  0
    7.5896  -26.1457   -8.9382 C   0  0  0  0  0  0  0  0  0  0  0  0
   12.3069  -27.2811  -10.5874 C   0  0  0  0  0  0  0  0  0  0  0  0
   11.1517  -26.9672  -11.1910 C   0  0  0  0  0  0  0  0  0  0  0  0
   13.5488  -27.5770  -11.3417 C   0  0  0  0  0  0  0  0  0  0  0  0
   14.7529  -27.9099  -10.5165 C   0  0  0  0  0  0  0  0  0  0  0  0
    7.7960  -28.4450   -8.0224 C   0  0  0  0  0  0  0  0  0  0  0  0
    8.1601  -25.2018   -9.8008 N   0  0  0  0  0  0  0  0  0  0  0  0
    8.2771  -27.3667   -8.8787 N   0  0  0  0  0  0  0  0  0  0  0  0
    9.7435  -24.4816  -11.3077 O   0  0  0  0  0  0  0  0  0  0  0  0
    6.5663  -25.8884   -8.3006 O   0  0  0  0  0  0  0  0  0  0  0  0
   13.6711  -27.5987  -12.5547 O   0  0  0  0  0  0  0  0  0  0  0  0
   14.7184  -27.9380   -9.3035 O   0  0  0  0  0  0  0  0  0  0  0  0
   11.0292  -26.8935  -12.5631 O   0  0  0  0  0  0  0  0  0  0  0  0
   15.7876  -28.1818  -11.3230 O   0  0  0  0  0  0  0  0  0  0  0  0
    3.5718  -30.9867  -10.1697 H   0  0  0  0  0  0  0  0  0  0  0  0
    3.3601  -29.8770   -7.9608 H   0  0  0  0  0  0  0  0  0  0  0  0
    5.7329  -30.9235  -11.3874 H   0  0  0  0  0  0  0  0  0  0  0  0
    5.2993  -28.7063   -6.9690 H   0  0  0  0  0  0  0  0  0  0  0  0
    7.6778  -29.7557  -10.4043 H   0  0  0  0  0  0  0  0  0  0  0  0
    9.8681  -28.5769   -9.4926 H   0  0  0  0  0  0  0  0  0  0  0  0
   12.3753  -27.3312   -9.5041 H   0  0  0  0  0  0  0  0  0  0  0  0
    7.5337  -28.0125   -7.0507 H   0  0  0  0  0  0  0  0  0  0  0  0
    8.6281  -29.1373   -7.8564 H   0  0  0  0  0  0  0  0  0  0  0  0
    7.6861  -24.3053   -9.8679 H   0  0  0  0  0  0  0  0  0  0  0  0
   11.8735  -27.0972  -12.9782 H   0  0  0  0  0  0  0  0  0  0  0  0
   16.5941  -28.4291  -10.8224 H   0  0  0  0  0  0  0  0  0  0  0  0
  1  2  1  0  0  0  0
  1  3  2  0  0  0  0
  2  4  2  0  0  0  0
  3  5  1  0  0  0  0
  4  6  1  0  0  0  0
  5  6  2  0  0  0  0
  6 15  1  0  0  0  0
  7  8  2  0  0  0  0
  7 17  1  0  0  0  0
  8  9  1  0  0  0  0
  8 12  1  0  0  0  0
  9 16  1  0  0  0  0
  9 18  2  0  0  0  0
 10 16  1  0  0  0  0
 10 17  1  0  0  0  0
 10 19  2  0  0  0  0
 11 12  2  0  0  0  0
 11 13  1  0  0  0  0
 12 22  1  0  0  0  0
 13 14  1  0  0  0  0
 13 20  2  0  0  0  0
 14 21  2  0  0  0  0
 14 23  1  0  0  0  0
 15 17  1  0  0  0  0
  1 24  1  0  0  0  0
  2 25  1  0  0  0  0
  3 26  1  0  0  0  0
  4 27  1  0  0  0  0
  5 28  1  0  0  0  0
  7 29  1  0  0  0  0
 11 30  1  0  0  0  0
 15 31  1  0  0  0  0
 15 32  1  0  0  0  0
 16 33  1  0  0  0  0
 22 34  1  0  0  0  0
 23 35  1  0  0  0  0
M  END
> <Hybrid2>
-5.275130748748779

> <Hybrid2>
-5.275131

$$$$
CHEMBL199874
  -OEChem-02152218483D

 35 36  0     0  0  0  0  0  0999 V2000
    4.4265  -30.3567   -9.6402 C   0  0  0  0  0  0  0  0  0  0  0  0
    4.3714  -29.7279   -8.3964 C   0  0  0  0  0  0  0  0  0  0  0  0
    5.6085  -30.3355  -10.3807 C   0  0  0  0  0  0  0  0  0  0  0  0
    5.4982  -29.0779   -7.8930 C   0  0  0  0  0  0  0  0  0  0  0  0
    6.7353  -29.6855   -9.8773 C   0  0  0  0  0  0  0  0  0  0  0  0
    6.6802  -29.0567   -8.6334 C   0  0  0  0  0  0  0  0  0  0  0  0
    9.4501  -27.5280   -9.7655 C   0  0  0  0  0  0  0  0  0  0  0  0
    9.9541  -26.6244  -10.6128 C   0  0  0  0  0  0  0  0  0  0  0  0
    9.3087  -25.2953  -10.7203 C   0  0  0  0  0  0  0  0  0  0  0  0
    7.6667  -26.0587   -9.0059 C   0  0  0  0  0  0  0  0  0  0  0  0
   12.2909  -27.2455  -10.8686 C   0  0  0  0  0  0  0  0  0  0  0  0
   11.1119  -26.9223  -11.4190 C   0  0  0  0  0  0  0  0  0  0  0  0
   13.4934  -27.5559  -11.6788 C   0  0  0  0  0  0  0  0  0  0  0  0
   14.7314  -27.8980  -10.9094 C   0  0  0  0  0  0  0  0  0  0  0  0
    7.8933  -28.3570   -8.0923 C   0  0  0  0  0  0  0  0  0  0  0  0
    8.2055  -25.1231   -9.8975 N   0  0  0  0  0  0  0  0  0  0  0  0
    8.3444  -27.2862   -8.9739 N   0  0  0  0  0  0  0  0  0  0  0  0
    9.7238  -24.4233  -11.4791 O   0  0  0  0  0  0  0  0  0  0  0  0
    6.6767  -25.7894   -8.3223 O   0  0  0  0  0  0  0  0  0  0  0  0
   13.5589  -27.5827  -12.8961 O   0  0  0  0  0  0  0  0  0  0  0  0
   14.7532  -27.9219   -9.6959 O   0  0  0  0  0  0  0  0  0  0  0  0
   10.9264  -26.8517  -12.7842 O   0  0  0  0  0  0  0  0  0  0  0  0
   15.7247  -28.1826  -11.7621 O   0  0  0  0  0  0  0  0  0  0  0  0
    3.5494  -30.8640  -10.0314 H   0  0  0  0  0  0  0  0  0  0  0  0
    3.4515  -29.7453   -7.8192 H   0  0  0  0  0  0  0  0  0  0  0  0
    5.6520  -30.8259  -11.3487 H   0  0  0  0  0  0  0  0  0  0  0  0
    5.4460  -28.5905   -6.9229 H   0  0  0  0  0  0  0  0  0  0  0  0
    7.6518  -29.6740  -10.4613 H   0  0  0  0  0  0  0  0  0  0  0  0
    9.8933  -28.5138   -9.6569 H   0  0  0  0  0  0  0  0  0  0  0  0
   12.4092  -27.2928   -9.7895 H   0  0  0  0  0  0  0  0  0  0  0  0
    7.6808  -27.9189   -7.1110 H   0  0  0  0  0  0  0  0  0  0  0  0
    8.7255  -29.0568   -7.9627 H   0  0  0  0  0  0  0  0  0  0  0  0
    7.7375  -24.2223   -9.9457 H   0  0  0  0  0  0  0  0  0  0  0  0
   11.7485  -27.0650  -13.2374 H   0  0  0  0  0  0  0  0  0  0  0  0
   16.5513  -28.4362  -11.2987 H   0  0  0  0  0  0  0  0  0  0  0  0
  1  2  1  0  0  0  0
  1  3  2  0  0  0  0
  2  4  2  0  0  0  0
  3  5  1  0  0  0  0
  4  6  1  0  0  0  0
  5  6  2  0  0  0  0
  6 15  1  0  0  0  0
  7  8  2  0  0  0  0
  7 17  1  0  0  0  0
  8  9  1  0  0  0  0
  8 12  1  0  0  0  0
  9 16  1  0  0  0  0
  9 18  2  0  0  0  0
 10 16  1  0  0  0  0
 10 17  1  0  0  0  0
 10 19  2  0  0  0  0
 11 12  2  0  0  0  0
 11 13  1  0  0  0  0
 12 22  1  0  0  0  0
 13 14  1  0  0  0  0
 13 20  2  0  0  0  0
 14 21  2  0  0  0  0
 14 23  1  0  0  0  0
 15 17  1  0  0  0  0
  1 24  1  0  0  0  0
  2 25  1  0  0  0  0
  3 26  1  0  0  0  0
  4 27  1  0  0  0  0
  5 28  1  0  0  0  0
  7 29  1  0  0  0  0
 11 30  1  0  0  0  0
 15 31  1  0  0  0  0
 15 32  1  0  0  0  0
 16 33  1  0  0  0  0
 22 34  1  0  0  0  0
 23 35  1  0  0  0  0
M  END
> <Hybrid2>
-5.275130748748779

> <Hybrid2>
-5.115567

$$$$
CHEMBL288097
  -OEChem-02152218483D

 38 41  0     0  0  0  0  0  0999 V2000
    4.6908  -30.5427   -8.2791 C   0  0  0  0  0  0  0  0  0  0  0  0
    4.2822  -29.9400   -9.4688 C   0  0  0  0  0  0  0  0  0  0  0  0
    5.3642  -29.7945   -7.3135 C   0  0  0  0  0  0  0  0  0  0  0  0
    4.5471  -28.5890   -9.6930 C   0  0  0  0  0  0  0  0  0  0  0  0
    5.6290  -28.4435   -7.5377 C   0  0  0  0  0  0  0  0  0  0  0  0
    6.5080  -25.3747  -11.0320 C   0  0  0  0  0  0  0  0  0  0  0  0
    7.5950  -25.1407  -11.8752 C   0  0  0  0  0  0  0  0  0  0  0  0
   12.1285  -25.5730  -13.0735 C   0  0  0  0  0  0  0  0  0  0  0  0
   13.4280  -26.0349  -12.8615 C   0  0  0  0  0  0  0  0  0  0  0  0
    7.9268  -26.6460   -9.5430 C   0  0  0  0  0  0  0  0  0  0  0  0
    9.0122  -26.4089  -10.3904 C   0  0  0  0  0  0  0  0  0  0  0  0
   11.4219  -26.6390  -11.0276 C   0  0  0  0  0  0  0  0  0  0  0  0
    5.2205  -27.8407   -8.7274 C   0  0  0  0  0  0  0  0  0  0  0  0
    6.6739  -26.1259   -9.8683 C   0  0  0  0  0  0  0  0  0  0  0  0
    8.8516  -25.6585  -11.5548 C   0  0  0  0  0  0  0  0  0  0  0  0
   11.1212  -25.8750  -12.1548 C   0  0  0  0  0  0  0  0  0  0  0  0
   13.7236  -26.7990  -11.7324 C   0  0  0  0  0  0  0  0  0  0  0  0
   12.7217  -27.1040  -10.8111 C   0  0  0  0  0  0  0  0  0  0  0  0
   10.3449  -26.9446  -10.0735 C   0  0  0  0  0  0  0  0  0  0  0  0
    5.5088  -26.3729   -8.9704 C   0  0  0  0  0  0  0  0  0  0  0  0
   10.5232  -27.6083   -9.0629 O   0  0  0  0  0  0  0  0  0  0  0  0
    9.8696  -25.3842  -12.4347 O   0  0  0  0  0  0  0  0  0  0  0  0
   14.9989  -27.2409  -11.5441 O   0  0  0  0  0  0  0  0  0  0  0  0
   13.0512  -27.8532   -9.7207 O   0  0  0  0  0  0  0  0  0  0  0  0
    4.4833  -31.5944   -8.1042 H   0  0  0  0  0  0  0  0  0  0  0  0
    3.7569  -30.5222  -10.2203 H   0  0  0  0  0  0  0  0  0  0  0  0
    5.6815  -30.2632   -6.3867 H   0  0  0  0  0  0  0  0  0  0  0  0
    4.2251  -28.1278  -10.6229 H   0  0  0  0  0  0  0  0  0  0  0  0
    6.1544  -27.8684   -6.7798 H   0  0  0  0  0  0  0  0  0  0  0  0
    5.5342  -24.9672  -11.2907 H   0  0  0  0  0  0  0  0  0  0  0  0
    7.4537  -24.5546  -12.7794 H   0  0  0  0  0  0  0  0  0  0  0  0
   11.9085  -24.9791  -13.9567 H   0  0  0  0  0  0  0  0  0  0  0  0
   14.2062  -25.7957  -13.5815 H   0  0  0  0  0  0  0  0  0  0  0  0
    8.0444  -27.2309   -8.6343 H   0  0  0  0  0  0  0  0  0  0  0  0
    4.6003  -25.8930   -9.3749 H   0  0  0  0  0  0  0  0  0  0  0  0
    5.6576  -25.8723   -7.9975 H   0  0  0  0  0  0  0  0  0  0  0  0
   15.5671  -26.9432  -12.2716 H   0  0  0  0  0  0  0  0  0  0  0  0
   12.2702  -27.9930   -9.1631 H   0  0  0  0  0  0  0  0  0  0  0  0
  1  2  1  0  0  0  0
  1  3  2  0  0  0  0
  2  4  2  0  0  0  0
  3  5  1  0  0  0  0
  4 13  1  0  0  0  0
  5 13  2  0  0  0  0
  6  7  2  0  0  0  0
  6 14  1  0  0  0  0
  7 15  1  0  0  0  0
  8  9  2  0  0  0  0
  8 16  1  0  0  0  0
  9 17  1  0  0  0  0
 10 11  1  0  0  0  0
 10 14  2  0  0  0  0
 11 15  2  0  0  0  0
 11 19  1  0  0  0  0
 12 16  2  0  0  0  0
 12 18  1  0  0  0  0
 12 19  1  0  0  0  0
 13 20  1  0  0  0  0
 14 20  1  0  0  0  0
 15 22  1  0  0  0  0
 16 22  1  0  0  0  0
 17 18  2  0  0  0  0
 17 23  1  0  0  0  0
 18 24  1  0  0  0  0
 19 21  2  0  0  0  0
  1 25  1  0  0  0  0
  2 26  1  0  0  0  0
  3 27  1  0  0  0  0
  4 28  1  0  0  0  0
  5 29  1  0  0  0  0
  6 30  1  0  0  0  0
  7 31  1  0  0  0  0
  8 32  1  0  0  0  0
  9 33  1  0  0  0  0
 10 34  1  0  0  0  0
 20 35  1  0  0  0  0
 20 36  1  0  0  0  0
 23 37  1  0  0  0  0
 24 38  1  0  0  0  0
M  END
> <Hybrid2>
-6.2777180671691895

> <Hybrid2>
-6.277718

$$$$
CHEMBL288097
  -OEChem-02152218483D

 38 41  0     0  0  0  0  0  0999 V2000
    4.6174  -30.9543   -8.8019 C   0  0  0  0  0  0  0  0  0  0  0  0
    4.3102  -30.1263   -9.8815 C   0  0  0  0  0  0  0  0  0  0  0  0
    5.3051  -30.4406   -7.7024 C   0  0  0  0  0  0  0  0  0  0  0  0
    4.6907  -28.7845   -9.8617 C   0  0  0  0  0  0  0  0  0  0  0  0
    5.6856  -29.0988   -7.6826 C   0  0  0  0  0  0  0  0  0  0  0  0
    6.9566  -25.5695  -10.5687 C   0  0  0  0  0  0  0  0  0  0  0  0
    8.0945  -25.2900  -11.3265 C   0  0  0  0  0  0  0  0  0  0  0  0
   12.6275  -25.8992  -12.4472 C   0  0  0  0  0  0  0  0  0  0  0  0
   13.8758  -26.4997  -12.2797 C   0  0  0  0  0  0  0  0  0  0  0  0
    8.2039  -27.1910   -9.2798 C   0  0  0  0  0  0  0  0  0  0  0  0
    9.3406  -26.9076  -10.0413 C   0  0  0  0  0  0  0  0  0  0  0  0
   11.7500  -27.2317  -10.6372 C   0  0  0  0  0  0  0  0  0  0  0  0
    5.3784  -28.2707   -8.7623 C   0  0  0  0  0  0  0  0  0  0  0  0
    7.0115  -26.5182   -9.5474 C   0  0  0  0  0  0  0  0  0  0  0  0
    9.2909  -25.9600  -11.0632 C   0  0  0  0  0  0  0  0  0  0  0  0
   11.5603  -26.2651  -11.6243 C   0  0  0  0  0  0  0  0  0  0  0  0
   14.0605  -27.4663  -11.2909 C   0  0  0  0  0  0  0  0  0  0  0  0
   12.9982  -27.8360  -10.4658 C   0  0  0  0  0  0  0  0  0  0  0  0
   10.6116  -27.6012   -9.7822 C   0  0  0  0  0  0  0  0  0  0  0  0
    5.7924  -26.8131   -8.7402 C   0  0  0  0  0  0  0  0  0  0  0  0
   10.6925  -28.4390   -8.8962 O   0  0  0  0  0  0  0  0  0  0  0  0
   10.3649  -25.6289  -11.8523 O   0  0  0  0  0  0  0  0  0  0  0  0
   15.2873  -28.0410  -11.1439 O   0  0  0  0  0  0  0  0  0  0  0  0
   13.2194  -28.7842   -9.5115 O   0  0  0  0  0  0  0  0  0  0  0  0
    4.3198  -31.9988   -8.8169 H   0  0  0  0  0  0  0  0  0  0  0  0
    3.7738  -30.5259  -10.7372 H   0  0  0  0  0  0  0  0  0  0  0  0
    5.5435  -31.0847   -6.8612 H   0  0  0  0  0  0  0  0  0  0  0  0
    4.4472  -28.1468  -10.7075 H   0  0  0  0  0  0  0  0  0  0  0  0
    6.2212  -28.7072   -6.8218 H   0  0  0  0  0  0  0  0  0  0  0  0
    6.0304  -25.0424  -10.7820 H   0  0  0  0  0  0  0  0  0  0  0  0
    8.0397  -24.5494  -12.1201 H   0  0  0  0  0  0  0  0  0  0  0  0
   12.4940  -25.1479  -13.2210 H   0  0  0  0  0  0  0  0  0  0  0  0
   14.7013  -26.2095  -12.9244 H   0  0  0  0  0  0  0  0  0  0  0  0
    8.2349  -27.9291   -8.4822 H   0  0  0  0  0  0  0  0  0  0  0  0
    4.9433  -26.1958   -9.0826 H   0  0  0  0  0  0  0  0  0  0  0  0
    5.9377  -26.4989   -7.6917 H   0  0  0  0  0  0  0  0  0  0  0  0
   15.9086  -27.6742  -11.7922 H   0  0  0  0  0  0  0  0  0  0  0  0
   12.4063  -28.9491   -9.0096 H   0  0  0  0  0  0  0  0  0  0  0  0
  1  2  1  0  0  0  0
  1  3  2  0  0  0  0
  2  4  2  0  0  0  0
  3  5  1  0  0  0  0
  4 13  1  0  0  0  0
  5 13  2  0  0  0  0
  6  7  2  0  0  0  0
  6 14  1  0  0  0  0
  7 15  1  0  0  0  0
  8  9  2  0  0  0  0
  8 16  1  0  0  0  0
  9 17  1  0  0  0  0
 10 11  1  0  0  0  0
 10 14  2  0  0  0  0
 11 15  2  0  0  0  0
 11 19  1  0  0  0  0
 12 16  2  0  0  0  0
 12 18  1  0  0  0  0
 12 19  1  0  0  0  0
 13 20  1  0  0  0  0
 14 20  1  0  0  0  0
 15 22  1  0  0  0  0
 16 22  1  0  0  0  0
 17 18  2  0  0  0  0
 17 23  1  0  0  0  0
 18 24  1  0  0  0  0
 19 21  2  0  0  0  0
  1 25  1  0  0  0  0
  2 26  1  0  0  0  0
  3 27  1  0  0  0  0
  4 28  1  0  0  0  0
  5 29  1  0  0  0  0
  6 30  1  0  0  0  0
  7 31  1  0  0  0  0
  8 32  1  0  0  0  0
  9 33  1  0  0  0  0
 10 34  1  0  0  0  0
 20 35  1  0  0  0  0
 20 36  1  0  0  0  0
 23 37  1  0  0  0  0
 24 38  1  0  0  0  0
M  END
> <Hybrid2>
-6.2777180671691895

> <Hybrid2>
-6.259748

$$$$
CHEMBL111182
  -OEChem-02152218483D

 38 40  0     0  0  0  0  0  0999 V2000
    7.4933  -30.2131   -9.7330 C   0  0  0  0  0  0  0  0  0  0  0  0
   13.9378  -27.2042   -9.0501 C   0  0  0  0  0  0  0  0  0  0  0  0
    6.8019  -30.6880   -8.6186 C   0  0  0  0  0  0  0  0  0  0  0  0
   13.9560  -27.9173  -10.2487 C   0  0  0  0  0  0  0  0  0  0  0  0
    7.4406  -28.8585  -10.0615 C   0  0  0  0  0  0  0  0  0  0  0  0
   13.0357  -26.1545   -8.8767 C   0  0  0  0  0  0  0  0  0  0  0  0
    6.0575  -29.8083   -7.8327 C   0  0  0  0  0  0  0  0  0  0  0  0
   13.0722  -27.5807  -11.2740 C   0  0  0  0  0  0  0  0  0  0  0  0
    6.6962  -27.9788   -9.2755 C   0  0  0  0  0  0  0  0  0  0  0  0
   12.1519  -25.8179   -9.9020 C   0  0  0  0  0  0  0  0  0  0  0  0
    6.0047  -28.4537   -8.1611 C   0  0  0  0  0  0  0  0  0  0  0  0
   12.1701  -26.5309  -11.1006 C   0  0  0  0  0  0  0  0  0  0  0  0
    7.7263  -25.8025   -9.7422 C   0  0  0  0  0  0  0  0  0  0  0  0
    7.7785  -24.3853  -10.1002 C   0  0  0  0  0  0  0  0  0  0  0  0
    9.1238  -26.2065   -9.5103 C   0  0  0  0  0  0  0  0  0  0  0  0
    6.6577  -26.5886   -9.6342 C   0  0  0  0  0  0  0  0  0  0  0  0
   11.2090  -24.7074   -9.6982 C   0  0  0  0  0  0  0  0  0  0  0  0
    6.5780  -23.5574  -10.4090 C   0  0  0  0  0  0  0  0  0  0  0  0
    9.0029  -23.9357  -10.1120 N   0  0  0  0  0  0  0  0  0  0  0  0
    9.8400  -25.0054   -9.7823 N   0  0  0  0  0  0  0  0  0  0  0  0
    9.5081  -27.3057   -9.1599 O   0  0  0  0  0  0  0  0  0  0  0  0
   11.6773  -23.5994   -9.4444 O   0  0  0  0  0  0  0  0  0  0  0  0
    5.2686  -27.6160   -7.3763 O   0  0  0  0  0  0  0  0  0  0  0  0
   11.3132  -26.2183  -12.1134 O   0  0  0  0  0  0  0  0  0  0  0  0
    8.0716  -30.8987  -10.3455 H   0  0  0  0  0  0  0  0  0  0  0  0
   14.6262  -27.4667   -8.2518 H   0  0  0  0  0  0  0  0  0  0  0  0
    6.8435  -31.7428   -8.3640 H   0  0  0  0  0  0  0  0  0  0  0  0
   14.6589  -28.7342  -10.3832 H   0  0  0  0  0  0  0  0  0  0  0  0
    7.9846  -28.5053  -10.9343 H   0  0  0  0  0  0  0  0  0  0  0  0
   13.0302  -25.6060   -7.9381 H   0  0  0  0  0  0  0  0  0  0  0  0
    5.5220  -30.1853   -6.9655 H   0  0  0  0  0  0  0  0  0  0  0  0
   13.0915  -28.1404  -12.2052 H   0  0  0  0  0  0  0  0  0  0  0  0
    5.6821  -26.1540   -9.8601 H   0  0  0  0  0  0  0  0  0  0  0  0
    6.1980  -23.0976   -9.4958 H   0  0  0  0  0  0  0  0  0  0  0  0
    5.7972  -24.1815  -10.8464 H   0  0  0  0  0  0  0  0  0  0  0  0
    6.8394  -22.7738  -11.1218 H   0  0  0  0  0  0  0  0  0  0  0  0
    4.8579  -28.1124   -6.6517 H   0  0  0  0  0  0  0  0  0  0  0  0
   11.4579  -26.8096  -12.8684 H   0  0  0  0  0  0  0  0  0  0  0  0
  1  3  1  0  0  0  0
  1  5  2  0  0  0  0
  2  4  1  0  0  0  0
  2  6  2  0  0  0  0
  3  7  2  0  0  0  0
  4  8  2  0  0  0  0
  5  9  1  0  0  0  0
  6 10  1  0  0  0  0
  7 11  1  0  0  0  0
  8 12  1  0  0  0  0
  9 11  2  0  0  0  0
  9 16  1  0  0  0  0
 10 12  2  0  0  0  0
 10 17  1  0  0  0  0
 11 23  1  0  0  0  0
 12 24  1  0  0  0  0
 13 14  1  0  0  0  0
 13 15  1  0  0  0  0
 13 16  2  0  0  0  0
 14 18  1  0  0  0  0
 14 19  2  0  0  0  0
 15 20  1  0  0  0  0
 15 21  2  0  0  0  0
 17 20  1  0  0  0  0
 17 22  2  0  0  0  0
 19 20  1  0  0  0  0
  1 25  1  0  0  0  0
  2 26  1  0  0  0  0
  3 27  1  0  0  0  0
  4 28  1  0  0  0  0
  5 29  1  0  0  0  0
  6 30  1  0  0  0  0
  7 31  1  0  0  0  0
  8 32  1  0  0  0  0
 16 33  1  0  0  0  0
 18 34  1  0  0  0  0
 18 35  1  0  0  0  0
 18 36  1  0  0  0  0
 23 37  1  0  0  0  0
 24 38  1  0  0  0  0
M  END
> <Hybrid2>
-2.908905506134033

> <Hybrid2>
-2.908906

$$$$
CHEMBL111182
  -OEChem-02152218483D

 38 40  0     0  0  0  0  0  0999 V2000
    7.5056  -30.0472   -9.6130 C   0  0  0  0  0  0  0  0  0  0  0  0
   13.9498  -26.9620   -9.5428 C   0  0  0  0  0  0  0  0  0  0  0  0
    6.8134  -30.2890   -8.4264 C   0  0  0  0  0  0  0  0  0  0  0  0
   13.9688  -27.9010  -10.5740 C   0  0  0  0  0  0  0  0  0  0  0  0
    7.4532  -28.7859  -10.2064 C   0  0  0  0  0  0  0  0  0  0  0  0
   13.0477  -25.8989   -9.5841 C   0  0  0  0  0  0  0  0  0  0  0  0
    6.0685  -29.2696   -7.8334 C   0  0  0  0  0  0  0  0  0  0  0  0
   13.0858  -27.7769  -11.6466 C   0  0  0  0  0  0  0  0  0  0  0  0
    6.7083  -27.7665   -9.6134 C   0  0  0  0  0  0  0  0  0  0  0  0
   12.1646  -25.7747  -10.6567 C   0  0  0  0  0  0  0  0  0  0  0  0
    6.0160  -28.0083   -8.4269 C   0  0  0  0  0  0  0  0  0  0  0  0
   12.1836  -26.7137  -11.6880 C   0  0  0  0  0  0  0  0  0  0  0  0
    7.7389  -25.7280  -10.5064 C   0  0  0  0  0  0  0  0  0  0  0  0
    7.7914  -24.4113  -11.1412 C   0  0  0  0  0  0  0  0  0  0  0  0
    9.1362  -26.0772  -10.1972 C   0  0  0  0  0  0  0  0  0  0  0  0
    6.6701  -26.4766  -10.2436 C   0  0  0  0  0  0  0  0  0  0  0  0
   11.2216  -24.6460  -10.6804 C   0  0  0  0  0  0  0  0  0  0  0  0
    6.5912  -23.6623  -11.6106 C   0  0  0  0  0  0  0  0  0  0  0  0
    9.0159  -23.9731  -11.2421 N   0  0  0  0  0  0  0  0  0  0  0  0
    9.8527  -24.9549  -10.7040 N   0  0  0  0  0  0  0  0  0  0  0  0
    9.5201  -27.0837   -9.6331 O   0  0  0  0  0  0  0  0  0  0  0  0
   11.6898  -23.5096  -10.6536 O   0  0  0  0  0  0  0  0  0  0  0  0
    5.2794  -27.0303   -7.8265 O   0  0  0  0  0  0  0  0  0  0  0  0
   11.3274  -26.6107  -12.7434 O   0  0  0  0  0  0  0  0  0  0  0  0
    8.0843  -30.8417  -10.0751 H   0  0  0  0  0  0  0  0  0  0  0  0
   14.6377  -27.0589   -8.7076 H   0  0  0  0  0  0  0  0  0  0  0  0
    6.8547  -31.2713   -7.9654 H   0  0  0  0  0  0  0  0  0  0  0  0
   14.6718  -28.7281  -10.5415 H   0  0  0  0  0  0  0  0  0  0  0  0
    7.9978  -28.6149  -11.1320 H   0  0  0  0  0  0  0  0  0  0  0  0
   13.0415  -25.1733   -8.7746 H   0  0  0  0  0  0  0  0  0  0  0  0
    5.5323  -29.4650   -6.9086 H   0  0  0  0  0  0  0  0  0  0  0  0
   13.1057  -28.5119  -12.4467 H   0  0  0  0  0  0  0  0  0  0  0  0
    5.6948  -26.0961  -10.5528 H   0  0  0  0  0  0  0  0  0  0  0  0
    6.2106  -23.0287  -10.8085 H   0  0  0  0  0  0  0  0  0  0  0  0
    5.8107  -24.3615  -11.9146 H   0  0  0  0  0  0  0  0  0  0  0  0
    6.8531  -23.0375  -12.4659 H   0  0  0  0  0  0  0  0  0  0  0  0
    4.8681  -27.3714   -7.0174 H   0  0  0  0  0  0  0  0  0  0  0  0
   11.4726  -27.3413  -13.3644 H   0  0  0  0  0  0  0  0  0  0  0  0
  1  3  1  0  0  0  0
  1  5  2  0  0  0  0
  2  4  1  0  0  0  0
  2  6  2  0  0  0  0
  3  7  2  0  0  0  0
  4  8  2  0  0  0  0
  5  9  1  0  0  0  0
  6 10  1  0  0  0  0
  7 11  1  0  0  0  0
  8 12  1  0  0  0  0
  9 11  2  0  0  0  0
  9 16  1  0  0  0  0
 10 12  2  0  0  0  0
 10 17  1  0  0  0  0
 11 23  1  0  0  0  0
 12 24  1  0  0  0  0
 13 14  1  0  0  0  0
 13 15  1  0  0  0  0
 13 16  2  0  0  0  0
 14 18  1  0  0  0  0
 14 19  2  0  0  0  0
 15 20  1  0  0  0  0
 15 21  2  0  0  0  0
 17 20  1  0  0  0  0
 17 22  2  0  0  0  0
 19 20  1  0  0  0  0
  1 25  1  0  0  0  0
  2 26  1  0  0  0  0
  3 27  1  0  0  0  0
  4 28  1  0  0  0  0
  5 29  1  0  0  0  0
  6 30  1  0  0  0  0
  7 31  1  0  0  0  0
  8 32  1  0  0  0  0
 16 33  1  0  0  0  0
 18 34  1  0  0  0  0
 18 35  1  0  0  0  0
 18 36  1  0  0  0  0
 23 37  1  0  0  0  0
 24 38  1  0  0  0  0
M  END
> <Hybrid2>
-2.908905506134033

> <Hybrid2>
-2.795368

$$$$
CHEMBL164
  -OEChem-02152218483D

 33 35  0     0  0  0  0  0  0999 V2000
   10.5286  -26.4493  -12.7192 C   0  0  0  0  0  0  0  0  0  0  0  0
   11.8370  -27.1453  -10.8112 C   0  0  0  0  0  0  0  0  0  0  0  0
    7.9207  -29.9974   -9.0258 C   0  0  0  0  0  0  0  0  0  0  0  0
    5.8365  -29.4147   -7.9476 C   0  0  0  0  0  0  0  0  0  0  0  0
   10.5977  -26.8848  -11.3959 C   0  0  0  0  0  0  0  0  0  0  0  0
    7.0985  -27.7291   -9.1259 C   0  0  0  0  0  0  0  0  0  0  0  0
    8.0662  -28.6767   -9.4516 C   0  0  0  0  0  0  0  0  0  0  0  0
   11.6989  -26.2745  -13.4580 C   0  0  0  0  0  0  0  0  0  0  0  0
   13.0073  -26.9704  -11.5499 C   0  0  0  0  0  0  0  0  0  0  0  0
    6.8050  -30.3650   -8.2735 C   0  0  0  0  0  0  0  0  0  0  0  0
    5.9796  -28.0934   -8.3728 C   0  0  0  0  0  0  0  0  0  0  0  0
   12.9382  -26.5350  -12.8733 C   0  0  0  0  0  0  0  0  0  0  0  0
    9.3609  -27.0705  -10.6164 C   0  0  0  0  0  0  0  0  0  0  0  0
    7.2749  -26.3442   -9.5893 C   0  0  0  0  0  0  0  0  0  0  0  0
    8.4990  -26.0651  -10.3782 C   0  0  0  0  0  0  0  0  0  0  0  0
    6.4558  -25.4700   -9.3391 O   0  0  0  0  0  0  0  0  0  0  0  0
    9.1831  -28.3764  -10.1877 O   0  0  0  0  0  0  0  0  0  0  0  0
   11.6174  -25.8486  -14.7493 O   0  0  0  0  0  0  0  0  0  0  0  0
   14.2112  -27.2290  -10.9674 O   0  0  0  0  0  0  0  0  0  0  0  0
    6.6607  -31.6530   -7.8567 O   0  0  0  0  0  0  0  0  0  0  0  0
    5.0056  -27.2057   -8.0279 O   0  0  0  0  0  0  0  0  0  0  0  0
   14.0820  -26.3641  -13.5953 O   0  0  0  0  0  0  0  0  0  0  0  0
    8.6896  -24.7835  -10.8474 O   0  0  0  0  0  0  0  0  0  0  0  0
    9.5662  -26.2439  -13.1829 H   0  0  0  0  0  0  0  0  0  0  0  0
   11.8995  -27.4855   -9.7798 H   0  0  0  0  0  0  0  0  0  0  0  0
    8.6738  -30.7396   -9.2787 H   0  0  0  0  0  0  0  0  0  0  0  0
    4.9686  -29.7065   -7.3610 H   0  0  0  0  0  0  0  0  0  0  0  0
   10.6900  -25.7143  -15.0001 H   0  0  0  0  0  0  0  0  0  0  0  0
   14.0844  -27.5211  -10.0510 H   0  0  0  0  0  0  0  0  0  0  0  0
    5.8404  -31.7516   -7.3477 H   0  0  0  0  0  0  0  0  0  0  0  0
    5.2149  -26.3255   -8.3782 H   0  0  0  0  0  0  0  0  0  0  0  0
   13.8692  -26.0601  -14.4912 H   0  0  0  0  0  0  0  0  0  0  0  0
    7.9611  -24.2195  -10.5668 H   0  0  0  0  0  0  0  0  0  0  0  0
  1  5  1  0  0  0  0
  1  8  2  0  0  0  0
  2  5  2  0  0  0  0
  2  9  1  0  0  0  0
  3  7  1  0  0  0  0
  3 10  2  0  0  0  0
  4 10  1  0  0  0  0
  4 11  2  0  0  0  0
  5 13  1  0  0  0  0
  6  7  2  0  0  0  0
  6 11  1  0  0  0  0
  6 14  1  0  0  0  0
  7 17  1  0  0  0  0
  8 12  1  0  0  0  0
  8 18  1  0  0  0  0
  9 12  2  0  0  0  0
  9 19  1  0  0  0  0
 10 20  1  0  0  0  0
 11 21  1  0  0  0  0
 12 22  1  0  0  0  0
 13 15  2  0  0  0  0
 13 17  1  0  0  0  0
 14 15  1  0  0  0  0
 14 16  2  0  0  0  0
 15 23  1  0  0  0  0
  1 24  1  0  0  0  0
  2 25  1  0  0  0  0
  3 26  1  0  0  0  0
  4 27  1  0  0  0  0
 18 28  1  0  0  0  0
 19 29  1  0  0  0  0
 20 30  1  0  0  0  0
 21 31  1  0  0  0  0
 22 32  1  0  0  0  0
 23 33  1  0  0  0  0
M  END
> <Hybrid2>
-7.2788567543029785

> <Hybrid2>
-7.278857

$$$$
CHEMBL164
  -OEChem-02152218483D

 33 35  0     0  0  0  0  0  0999 V2000
   10.1370  -26.3530  -12.6523 C   0  0  0  0  0  0  0  0  0  0  0  0
   11.4454  -27.0490  -10.7443 C   0  0  0  0  0  0  0  0  0  0  0  0
    7.5292  -29.9010   -8.9589 C   0  0  0  0  0  0  0  0  0  0  0  0
    5.4450  -29.3183   -7.8807 C   0  0  0  0  0  0  0  0  0  0  0  0
   10.2061  -26.7884  -11.3289 C   0  0  0  0  0  0  0  0  0  0  0  0
    6.7069  -27.6328   -9.0590 C   0  0  0  0  0  0  0  0  0  0  0  0
    7.6746  -28.5804   -9.3847 C   0  0  0  0  0  0  0  0  0  0  0  0
   11.3073  -26.1781  -13.3910 C   0  0  0  0  0  0  0  0  0  0  0  0
   12.6157  -26.8740  -11.4829 C   0  0  0  0  0  0  0  0  0  0  0  0
    6.4134  -30.2687   -8.2065 C   0  0  0  0  0  0  0  0  0  0  0  0
    5.5880  -27.9970   -8.3058 C   0  0  0  0  0  0  0  0  0  0  0  0
   12.5466  -26.4386  -12.8063 C   0  0  0  0  0  0  0  0  0  0  0  0
    8.9693  -26.9741  -10.5494 C   0  0  0  0  0  0  0  0  0  0  0  0
    6.8833  -26.2479   -9.5223 C   0  0  0  0  0  0  0  0  0  0  0  0
    8.1075  -25.9688  -10.3112 C   0  0  0  0  0  0  0  0  0  0  0  0
    6.0643  -25.3737   -9.2722 O   0  0  0  0  0  0  0  0  0  0  0  0
    8.7915  -28.2800  -10.1207 O   0  0  0  0  0  0  0  0  0  0  0  0
   11.2259  -25.7522  -14.6823 O   0  0  0  0  0  0  0  0  0  0  0  0
   13.8196  -27.1326  -10.9004 O   0  0  0  0  0  0  0  0  0  0  0  0
    6.2692  -31.5566   -7.7897 O   0  0  0  0  0  0  0  0  0  0  0  0
    4.6141  -27.1093   -7.9609 O   0  0  0  0  0  0  0  0  0  0  0  0
   13.6904  -26.2677  -13.5283 O   0  0  0  0  0  0  0  0  0  0  0  0
    8.2981  -24.6871  -10.7804 O   0  0  0  0  0  0  0  0  0  0  0  0
    9.1746  -26.1476  -13.1159 H   0  0  0  0  0  0  0  0  0  0  0  0
   11.5080  -27.3891   -9.7128 H   0  0  0  0  0  0  0  0  0  0  0  0
    8.2822  -30.6432   -9.2117 H   0  0  0  0  0  0  0  0  0  0  0  0
    4.5771  -29.6101   -7.2940 H   0  0  0  0  0  0  0  0  0  0  0  0
   10.2984  -25.6179  -14.9331 H   0  0  0  0  0  0  0  0  0  0  0  0
   13.6928  -27.4247   -9.9840 H   0  0  0  0  0  0  0  0  0  0  0  0
    5.4489  -31.6552   -7.2807 H   0  0  0  0  0  0  0  0  0  0  0  0
    4.8233  -26.2292   -8.3112 H   0  0  0  0  0  0  0  0  0  0  0  0
   13.4776  -25.9637  -14.4242 H   0  0  0  0  0  0  0  0  0  0  0  0
    7.5695  -24.1231  -10.4998 H   0  0  0  0  0  0  0  0  0  0  0  0
  1  5  1  0  0  0  0
  1  8  2  0  0  0  0
  2  5  2  0  0  0  0
  2  9  1  0  0  0  0
  3  7  1  0  0  0  0
  3 10  2  0  0  0  0
  4 10  1  0  0  0  0
  4 11  2  0  0  0  0
  5 13  1  0  0  0  0
  6  7  2  0  0  0  0
  6 11  1  0  0  0  0
  6 14  1  0  0  0  0
  7 17  1  0  0  0  0
  8 12  1  0  0  0  0
  8 18  1  0  0  0  0
  9 12  2  0  0  0  0
  9 19  1  0  0  0  0
 10 20  1  0  0  0  0
 11 21  1  0  0  0  0
 12 22  1  0  0  0  0
 13 15  2  0  0  0  0
 13 17  1  0  0  0  0
 14 15  1  0  0  0  0
 14 16  2  0  0  0  0
 15 23  1  0  0  0  0
  1 24  1  0  0  0  0
  2 25  1  0  0  0  0
  3 26  1  0  0  0  0
  4 27  1  0  0  0  0
 18 28  1  0  0  0  0
 19 29  1  0  0  0  0
 20 30  1  0  0  0  0
 21 31  1  0  0  0  0
 22 32  1  0  0  0  0
 23 33  1  0  0  0  0
M  END
> <Hybrid2>
-7.2788567543029785

> <Hybrid2>
-6.937677

$$$$
CHEMBL149674
  -OEChem-02152218483D

 61 63  0     1  0  0  0  0  0999 V2000
    6.4799  -20.4173   -8.6770 C   0  0  0  0  0  0  0  0  0  0  0  0
   11.7946  -27.2985  -14.3165 C   0  0  0  0  0  0  0  0  0  0  0  0
    6.8831  -19.1297   -9.0306 C   0  0  0  0  0  0  0  0  0  0  0  0
   12.4697  -27.3060  -15.5370 C   0  0  0  0  0  0  0  0  0  0  0  0
    7.8295  -21.3299  -10.4611 C   0  0  0  0  0  0  0  0  0  0  0  0
   13.5362  -25.9230  -13.3615 C   0  0  0  0  0  0  0  0  0  0  0  0
    6.9531  -21.5174   -9.3922 C   0  0  0  0  0  0  0  0  0  0  0  0
   12.3278  -26.6069  -13.2287 C   0  0  0  0  0  0  0  0  0  0  0  0
    7.7594  -18.9421  -10.0995 C   0  0  0  0  0  0  0  0  0  0  0  0
   13.6781  -26.6221  -15.6698 C   0  0  0  0  0  0  0  0  0  0  0  0
    8.2327  -20.0422  -10.8147 C   0  0  0  0  0  0  0  0  0  0  0  0
   14.2114  -25.9306  -14.5820 C   0  0  0  0  0  0  0  0  0  0  0  0
    6.5292  -22.8778   -9.0167 C   0  0  0  0  0  0  0  0  0  0  0  0
   11.6130  -26.5969  -11.9402 C   0  0  0  0  0  0  0  0  0  0  0  0
    7.1824  -23.9990   -9.3537 C   0  0  0  0  0  0  0  0  0  0  0  0
   10.6823  -27.4917  -11.5790 C   0  0  0  0  0  0  0  0  0  0  0  0
    6.6605  -25.3100   -8.9056 C   0  0  0  0  0  0  0  0  0  0  0  0
   10.0414  -27.3812  -10.2489 C   0  0  0  0  0  0  0  0  0  0  0  0
    4.9006  -29.8304   -8.7549 C   0  0  0  0  0  0  0  0  0  0  0  0
    7.1454  -30.5113   -9.6383 C   0  0  0  0  0  0  0  0  0  0  0  0
    6.2100  -28.1885  -10.1097 C   0  0  0  0  0  0  0  0  0  0  0  0
    8.0669  -29.9039   -8.5771 C   0  0  2  0  0  0  0  0  0  0  0  0
    7.1472  -27.6162   -9.0413 C   0  0  1  0  0  0  0  0  0  0  0  0
    8.4225  -28.4504   -8.9034 C   0  0  2  0  0  0  0  0  0  0  0  0
    5.8890  -29.6674   -9.8753 C   0  0  2  0  0  0  0  0  0  0  0  0
    5.6556  -25.4803   -8.2336 O   0  0  0  0  0  0  0  0  0  0  0  0
   10.2843  -26.5237   -9.4146 O   0  0  0  0  0  0  0  0  0  0  0  0
    4.4936  -28.9260   -8.0409 O   0  0  0  0  0  0  0  0  0  0  0  0
    8.1454  -17.6795  -10.4346 O   0  0  0  0  0  0  0  0  0  0  0  0
   14.3275  -26.6374  -16.8671 O   0  0  0  0  0  0  0  0  0  0  0  0
    9.0882  -19.8707  -11.8609 O   0  0  0  0  0  0  0  0  0  0  0  0
   15.3913  -25.2600  -14.7002 O   0  0  0  0  0  0  0  0  0  0  0  0
    4.5186  -31.1256   -8.6382 O   0  0  0  0  0  0  0  0  0  0  0  0
    9.2511  -30.6909   -8.4970 O   0  0  0  0  0  0  0  0  0  0  0  0
    5.1864  -30.1607  -11.0134 O   0  0  0  0  0  0  0  0  0  0  0  0
    7.4979  -26.2773   -9.3775 O   0  0  0  0  0  0  0  0  0  0  0  0
    9.1450  -28.3992  -10.1369 O   0  0  0  0  0  0  0  0  0  0  0  0
    5.7972  -20.5479   -7.8408 H   0  0  0  0  0  0  0  0  0  0  0  0
   10.8531  -27.8352  -14.2284 H   0  0  0  0  0  0  0  0  0  0  0  0
    6.5105  -18.2770   -8.4695 H   0  0  0  0  0  0  0  0  0  0  0  0
   12.0490  -27.8469  -16.3803 H   0  0  0  0  0  0  0  0  0  0  0  0
    8.2038  -22.1822  -11.0239 H   0  0  0  0  0  0  0  0  0  0  0  0
   13.9590  -25.3808  -12.5185 H   0  0  0  0  0  0  0  0  0  0  0  0
    5.6297  -22.9313   -8.4074 H   0  0  0  0  0  0  0  0  0  0  0  0
   11.9037  -25.8037  -11.2550 H   0  0  0  0  0  0  0  0  0  0  0  0
    8.0950  -23.9896   -9.9395 H   0  0  0  0  0  0  0  0  0  0  0  0
   10.3798  -28.3115  -12.2213 H   0  0  0  0  0  0  0  0  0  0  0  0
    7.6943  -30.6383  -10.5817 H   0  0  0  0  0  0  0  0  0  0  0  0
    6.8780  -31.5361   -9.3471 H   0  0  0  0  0  0  0  0  0  0  0  0
    5.2897  -27.5901  -10.1485 H   0  0  0  0  0  0  0  0  0  0  0  0
    6.6550  -28.0558  -11.1056 H   0  0  0  0  0  0  0  0  0  0  0  0
    7.5765  -29.9528   -7.5982 H   0  0  0  0  0  0  0  0  0  0  0  0
    6.6274  -27.5839   -8.0754 H   0  0  0  0  0  0  0  0  0  0  0  0
    9.0853  -28.0293   -8.1395 H   0  0  0  0  0  0  0  0  0  0  0  0
    7.7292  -17.0334   -9.8426 H   0  0  0  0  0  0  0  0  0  0  0  0
   13.8267  -27.1594  -17.5135 H   0  0  0  0  0  0  0  0  0  0  0  0
    9.3198  -20.7292  -12.2487 H   0  0  0  0  0  0  0  0  0  0  0  0
   15.6214  -24.8358  -13.8586 H   0  0  0  0  0  0  0  0  0  0  0  0
    3.8739  -31.2533   -7.9099 H   0  0  0  0  0  0  0  0  0  0  0  0
    8.9725  -31.5864   -8.2497 H   0  0  0  0  0  0  0  0  0  0  0  0
    4.3957  -29.6078  -11.1108 H   0  0  0  0  0  0  0  0  0  0  0  0
  1  3  2  0  0  0  0
  1  7  1  0  0  0  0
  2  4  2  0  0  0  0
  2  8  1  0  0  0  0
  3  9  1  0  0  0  0
  4 10  1  0  0  0  0
  5  7  2  0  0  0  0
  5 11  1  0  0  0  0
  6  8  2  0  0  0  0
  6 12  1  0  0  0  0
  7 13  1  0  0  0  0
  8 14  1  0  0  0  0
  9 11  2  0  0  0  0
  9 29  1  0  0  0  0
 10 12  2  0  0  0  0
 10 30  1  0  0  0  0
 11 31  1  0  0  0  0
 12 32  1  0  0  0  0
 13 15  2  0  0  0  0
 14 16  2  0  0  0  0
 15 17  1  0  0  0  0
 16 18  1  0  0  0  0
 17 26  2  0  0  0  0
 17 36  1  0  0  0  0
 18 27  2  0  0  0  0
 18 37  1  0  0  0  0
 19 25  1  0  0  0  0
 19 28  2  0  0  0  0
 19 33  1  0  0  0  0
 20 22  1  0  0  0  0
 20 25  1  0  0  0  0
 21 23  1  0  0  0  0
 21 25  1  0  0  0  0
 22 24  1  0  0  0  0
 22 34  1  0  0  0  0
 23 24  1  0  0  0  0
 23 36  1  0  0  0  0
 24 37  1  0  0  0  0
 25 35  1  0  0  0  0
  1 38  1  0  0  0  0
  2 39  1  0  0  0  0
  3 40  1  0  0  0  0
  4 41  1  0  0  0  0
  5 42  1  0  0  0  0
  6 43  1  0  0  0  0
 13 44  1  0  0  0  0
 14 45  1  0  0  0  0
 15 46  1  0  0  0  0
 16 47  1  0  0  0  0
 20 48  1  0  0  0  0
 20 49  1  0  0  0  0
 21 50  1  0  0  0  0
 21 51  1  0  0  0  0
 22 52  1  0  0  0  0
 23 53  1  0  0  0  0
 24 54  1  0  0  0  0
 29 55  1  0  0  0  0
 30 56  1  0  0  0  0
 31 57  1  0  0  0  0
 32 58  1  0  0  0  0
 33 59  1  0  0  0  0
 34 60  1  0  0  0  0
 35 61  1  0  0  0  0
M  END
> <Hybrid2>
-3.738596200942993

> <Hybrid2>
-3.738596

$$$$
CHEMBL149674
  -OEChem-02152218483D

 61 63  0     1  0  0  0  0  0999 V2000
    6.8225  -20.4902   -8.6648 C   0  0  0  0  0  0  0  0  0  0  0  0
   13.7643  -25.5906  -13.9444 C   0  0  0  0  0  0  0  0  0  0  0  0
    7.1018  -19.1845   -9.0683 C   0  0  0  0  0  0  0  0  0  0  0  0
   14.3233  -25.5769  -15.2222 C   0  0  0  0  0  0  0  0  0  0  0  0
    8.0564  -21.3399  -10.5602 C   0  0  0  0  0  0  0  0  0  0  0  0
   12.0383  -27.0950  -14.7156 C   0  0  0  0  0  0  0  0  0  0  0  0
    7.2999  -21.5679   -9.4107 C   0  0  0  0  0  0  0  0  0  0  0  0
   12.6217  -26.3497  -13.6910 C   0  0  0  0  0  0  0  0  0  0  0  0
    7.8584  -18.9565  -10.2178 C   0  0  0  0  0  0  0  0  0  0  0  0
   13.7398  -26.3222  -16.2468 C   0  0  0  0  0  0  0  0  0  0  0  0
    8.3357  -20.0342  -10.9637 C   0  0  0  0  0  0  0  0  0  0  0  0
   12.5973  -27.0813  -15.9935 C   0  0  0  0  0  0  0  0  0  0  0  0
    7.0070  -22.9471   -8.9827 C   0  0  0  0  0  0  0  0  0  0  0  0
   12.0330  -26.3661  -12.3404 C   0  0  0  0  0  0  0  0  0  0  0  0
    7.7002  -24.0276   -9.3691 C   0  0  0  0  0  0  0  0  0  0  0  0
   11.2038  -27.3150  -11.8828 C   0  0  0  0  0  0  0  0  0  0  0  0
    7.3136  -25.3630   -8.8599 C   0  0  0  0  0  0  0  0  0  0  0  0
   10.6855  -27.2255  -10.4989 C   0  0  0  0  0  0  0  0  0  0  0  0
    5.8879  -29.9877   -8.4961 C   0  0  0  0  0  0  0  0  0  0  0  0
    8.0802  -30.5316   -9.5828 C   0  0  0  0  0  0  0  0  0  0  0  0
    6.9483  -28.2847   -9.9862 C   0  0  0  0  0  0  0  0  0  0  0  0
    9.0544  -29.8465   -8.6206 C   0  0  2  0  0  0  0  0  0  0  0  0
    7.9412  -27.6334   -9.0181 C   0  0  1  0  0  0  0  0  0  0  0  0
    9.2777  -28.3781   -8.9942 C   0  0  2  0  0  0  0  0  0  0  0  0
    6.7525  -29.7776   -9.7073 C   0  0  2  0  0  0  0  0  0  0  0  0
    6.3907  -25.5889   -8.0934 O   0  0  0  0  0  0  0  0  0  0  0  0
   10.9472  -26.3400   -9.7003 O   0  0  0  0  0  0  0  0  0  0  0  0
    5.4896  -29.1009   -7.7557 O   0  0  0  0  0  0  0  0  0  0  0  0
    8.1240  -17.6766  -10.6010 O   0  0  0  0  0  0  0  0  0  0  0  0
   14.2956  -26.3001  -17.4902 O   0  0  0  0  0  0  0  0  0  0  0  0
    9.0747  -19.8233  -12.0886 O   0  0  0  0  0  0  0  0  0  0  0  0
   12.0186  -27.8122  -16.9868 O   0  0  0  0  0  0  0  0  0  0  0  0
    5.6077  -31.3035   -8.3303 O   0  0  0  0  0  0  0  0  0  0  0  0
   10.2918  -30.5511   -8.6460 O   0  0  0  0  0  0  0  0  0  0  0  0
    5.9806  -30.3356  -10.7681 O   0  0  0  0  0  0  0  0  0  0  0  0
    8.1665  -26.2798   -9.3998 O   0  0  0  0  0  0  0  0  0  0  0  0
    9.8751  -28.2992  -10.2915 O   0  0  0  0  0  0  0  0  0  0  0  0
    6.2325  -20.6523   -7.7660 H   0  0  0  0  0  0  0  0  0  0  0  0
   14.2309  -25.0054  -13.1556 H   0  0  0  0  0  0  0  0  0  0  0  0
    6.7268  -18.3494   -8.4828 H   0  0  0  0  0  0  0  0  0  0  0  0
   15.2133  -24.9832  -15.4129 H   0  0  0  0  0  0  0  0  0  0  0  0
    8.4330  -22.1745  -11.1476 H   0  0  0  0  0  0  0  0  0  0  0  0
   11.1475  -27.6901  -14.5267 H   0  0  0  0  0  0  0  0  0  0  0  0
    6.1749  -23.0506   -8.2898 H   0  0  0  0  0  0  0  0  0  0  0  0
   12.3325  -25.5439  -11.6941 H   0  0  0  0  0  0  0  0  0  0  0  0
    8.5506  -23.9670  -10.0394 H   0  0  0  0  0  0  0  0  0  0  0  0
   10.8984  -28.1637  -12.4850 H   0  0  0  0  0  0  0  0  0  0  0  0
    8.5448  -30.6373  -10.5730 H   0  0  0  0  0  0  0  0  0  0  0  0
    7.9119  -31.5670   -9.2571 H   0  0  0  0  0  0  0  0  0  0  0  0
    5.9900  -27.7499   -9.9431 H   0  0  0  0  0  0  0  0  0  0  0  0
    7.2871  -28.1391  -11.0214 H   0  0  0  0  0  0  0  0  0  0  0  0
    8.6633  -29.9119   -7.5990 H   0  0  0  0  0  0  0  0  0  0  0  0
    7.5141  -27.6199   -8.0074 H   0  0  0  0  0  0  0  0  0  0  0  0
    9.9795  -27.9010   -8.3013 H   0  0  0  0  0  0  0  0  0  0  0  0
    7.7226  -17.0502   -9.9785 H   0  0  0  0  0  0  0  0  0  0  0  0
   15.0789  -25.7280  -17.4972 H   0  0  0  0  0  0  0  0  0  0  0  0
    9.3265  -20.6707  -12.4879 H   0  0  0  0  0  0  0  0  0  0  0  0
   11.2382  -28.2787  -16.6484 H   0  0  0  0  0  0  0  0  0  0  0  0
    5.0450  -31.4619   -7.5425 H   0  0  0  0  0  0  0  0  0  0  0  0
   10.0994  -31.4591   -8.3642 H   0  0  0  0  0  0  0  0  0  0  0  0
    5.1484  -29.8385  -10.7952 H   0  0  0  0  0  0  0  0  0  0  0  0
  1  3  2  0  0  0  0
  1  7  1  0  0  0  0
  2  4  2  0  0  0  0
  2  8  1  0  0  0  0
  3  9  1  0  0  0  0
  4 10  1  0  0  0  0
  5  7  2  0  0  0  0
  5 11  1  0  0  0  0
  6  8  2  0  0  0  0
  6 12  1  0  0  0  0
  7 13  1  0  0  0  0
  8 14  1  0  0  0  0
  9 11  2  0  0  0  0
  9 29  1  0  0  0  0
 10 12  2  0  0  0  0
 10 30  1  0  0  0  0
 11 31  1  0  0  0  0
 12 32  1  0  0  0  0
 13 15  2  0  0  0  0
 14 16  2  0  0  0  0
 15 17  1  0  0  0  0
 16 18  1  0  0  0  0
 17 26  2  0  0  0  0
 17 36  1  0  0  0  0
 18 27  2  0  0  0  0
 18 37  1  0  0  0  0
 19 25  1  0  0  0  0
 19 28  2  0  0  0  0
 19 33  1  0  0  0  0
 20 22  1  0  0  0  0
 20 25  1  0  0  0  0
 21 23  1  0  0  0  0
 21 25  1  0  0  0  0
 22 24  1  0  0  0  0
 22 34  1  0  0  0  0
 23 24  1  0  0  0  0
 23 36  1  0  0  0  0
 24 37  1  0  0  0  0
 25 35  1  0  0  0  0
  1 38  1  0  0  0  0
  2 39  1  0  0  0  0
  3 40  1  0  0  0  0
  4 41  1  0  0  0  0
  5 42  1  0  0  0  0
  6 43  1  0  0  0  0
 13 44  1  0  0  0  0
 14 45  1  0  0  0  0
 15 46  1  0  0  0  0
 16 47  1  0  0  0  0
 20 48  1  0  0  0  0
 20 49  1  0  0  0  0
 21 50  1  0  0  0  0
 21 51  1  0  0  0  0
 22 52  1  0  0  0  0
 23 53  1  0  0  0  0
 24 54  1  0  0  0  0
 29 55  1  0  0  0  0
 30 56  1  0  0  0  0
 31 57  1  0  0  0  0
 32 58  1  0  0  0  0
 33 59  1  0  0  0  0
 34 60  1  0  0  0  0
 35 61  1  0  0  0  0
M  END
> <Hybrid2>
-3.738596200942993

> <Hybrid2>
-3.666391

$$$$
CHEMBL129073
  -OEChem-02152218483D

 36 37  0     0  0  0  0  0  0999 V2000
   12.3290  -27.8177   -9.5493 C   0  0  0  0  0  0  0  0  0  0  0  0
    3.4580  -28.2988   -8.1294 C   0  0  0  0  0  0  0  0  0  0  0  0
   13.6660  -28.1611   -9.7495 C   0  0  0  0  0  0  0  0  0  0  0  0
    2.4687  -29.2498   -7.8800 C   0  0  0  0  0  0  0  0  0  0  0  0
   12.3501  -26.5400  -11.5997 C   0  0  0  0  0  0  0  0  0  0  0  0
    4.9247  -30.0378   -8.9429 C   0  0  0  0  0  0  0  0  0  0  0  0
   11.6710  -27.0071  -10.4744 C   0  0  0  0  0  0  0  0  0  0  0  0
    4.6861  -28.6927   -8.6609 C   0  0  0  0  0  0  0  0  0  0  0  0
   14.3450  -27.6940  -10.8749 C   0  0  0  0  0  0  0  0  0  0  0  0
    2.7073  -30.5949   -8.1620 C   0  0  0  0  0  0  0  0  0  0  0  0
   13.6871  -26.8835  -11.8000 C   0  0  0  0  0  0  0  0  0  0  0  0
    3.9353  -30.9889   -8.6935 C   0  0  0  0  0  0  0  0  0  0  0  0
   10.2762  -26.6514  -10.2666 C   0  0  0  0  0  0  0  0  0  0  0  0
    5.7302  -27.6874   -8.9267 C   0  0  0  0  0  0  0  0  0  0  0  0
    9.4115  -27.3166   -9.4679 C   0  0  0  0  0  0  0  0  0  0  0  0
    7.0354  -27.9633   -9.0634 C   0  0  0  0  0  0  0  0  0  0  0  0
    7.9990  -26.8625   -9.3411 C   0  0  0  0  0  0  0  0  0  0  0  0
    7.6609  -25.6908   -9.4535 O   0  0  0  0  0  0  0  0  0  0  0  0
   15.6506  -28.0367  -11.0587 O   0  0  0  0  0  0  0  0  0  0  0  0
    1.7328  -31.5137   -7.9138 O   0  0  0  0  0  0  0  0  0  0  0  0
   14.3407  -26.4208  -12.9021 O   0  0  0  0  0  0  0  0  0  0  0  0
    4.1796  -32.2999   -8.9719 O   0  0  0  0  0  0  0  0  0  0  0  0
   11.8125  -28.1902   -8.6680 H   0  0  0  0  0  0  0  0  0  0  0  0
    3.2571  -27.2539   -7.9055 H   0  0  0  0  0  0  0  0  0  0  0  0
   14.1728  -28.7927   -9.0249 H   0  0  0  0  0  0  0  0  0  0  0  0
    1.5143  -28.9363   -7.4657 H   0  0  0  0  0  0  0  0  0  0  0  0
   11.8445  -25.9078  -12.3264 H   0  0  0  0  0  0  0  0  0  0  0  0
    5.8793  -30.3537   -9.3579 H   0  0  0  0  0  0  0  0  0  0  0  0
    9.9125  -25.7820  -10.8262 H   0  0  0  0  0  0  0  0  0  0  0  0
    5.3722  -26.6657   -9.0316 H   0  0  0  0  0  0  0  0  0  0  0  0
    9.7174  -28.1958   -8.9117 H   0  0  0  0  0  0  0  0  0  0  0  0
    7.4219  -28.9738   -8.9880 H   0  0  0  0  0  0  0  0  0  0  0  0
   15.9551  -28.6001  -10.3301 H   0  0  0  0  0  0  0  0  0  0  0  0
    0.9469  -31.0783   -7.5478 H   0  0  0  0  0  0  0  0  0  0  0  0
   13.7461  -25.8746  -13.4397 H   0  0  0  0  0  0  0  0  0  0  0  0
    5.0740  -32.4049   -9.3327 H   0  0  0  0  0  0  0  0  0  0  0  0
  1  3  2  0  0  0  0
  1  7  1  0  0  0  0
  2  4  2  0  0  0  0
  2  8  1  0  0  0  0
  3  9  1  0  0  0  0
  4 10  1  0  0  0  0
  5  7  2  0  0  0  0
  5 11  1  0  0  0  0
  6  8  2  0  0  0  0
  6 12  1  0  0  0  0
  7 13  1  0  0  0  0
  8 14  1  0  0  0  0
  9 11  2  0  0  0  0
  9 19  1  0  0  0  0
 10 12  2  0  0  0  0
 10 20  1  0  0  0  0
 11 21  1  0  0  0  0
 12 22  1  0  0  0  0
 13 15  2  0  0  0  0
 14 16  2  0  0  0  0
 15 17  1  0  0  0  0
 16 17  1  0  0  0  0
 17 18  2  0  0  0  0
  1 23  1  0  0  0  0
  2 24  1  0  0  0  0
  3 25  1  0  0  0  0
  4 26  1  0  0  0  0
  5 27  1  0  0  0  0
  6 28  1  0  0  0  0
 13 29  1  0  0  0  0
 14 30  1  0  0  0  0
 15 31  1  0  0  0  0
 16 32  1  0  0  0  0
 19 33  1  0  0  0  0
 20 34  1  0  0  0  0
 21 35  1  0  0  0  0
 22 36  1  0  0  0  0
M  END
> <Hybrid2>
-6.2201247215271

> <Hybrid2>
-6.220125

$$$$
CHEMBL129073
  -OEChem-02152218483D

 36 37  0     0  0  0  0  0  0999 V2000
   12.5614  -28.0806  -10.0221 C   0  0  0  0  0  0  0  0  0  0  0  0
    5.3576  -29.7323   -8.1130 C   0  0  0  0  0  0  0  0  0  0  0  0
   13.9211  -28.3884  -10.0672 C   0  0  0  0  0  0  0  0  0  0  0  0
    4.3991  -30.5682   -7.5401 C   0  0  0  0  0  0  0  0  0  0  0  0
   12.8576  -26.5071  -11.8313 C   0  0  0  0  0  0  0  0  0  0  0  0
    3.6287  -28.6194   -9.3817 C   0  0  0  0  0  0  0  0  0  0  0  0
   12.0296  -27.1400  -10.9042 C   0  0  0  0  0  0  0  0  0  0  0  0
    4.9724  -28.7579   -9.0338 C   0  0  0  0  0  0  0  0  0  0  0  0
   14.7491  -27.7555  -10.9943 C   0  0  0  0  0  0  0  0  0  0  0  0
    3.0555  -30.4298   -7.8880 C   0  0  0  0  0  0  0  0  0  0  0  0
   14.2173  -26.8149  -11.8764 C   0  0  0  0  0  0  0  0  0  0  0  0
    2.6702  -29.4554   -8.8088 C   0  0  0  0  0  0  0  0  0  0  0  0
   10.6113  -26.8212  -10.8588 C   0  0  0  0  0  0  0  0  0  0  0  0
    5.9848  -27.8731   -9.6368 C   0  0  0  0  0  0  0  0  0  0  0  0
    9.6533  -27.6007  -10.3085 C   0  0  0  0  0  0  0  0  0  0  0  0
    7.2981  -28.1404   -9.6841 C   0  0  0  0  0  0  0  0  0  0  0  0
    8.2272  -27.1724  -10.3301 C   0  0  0  0  0  0  0  0  0  0  0  0
    7.8529  -26.1198  -10.8318 O   0  0  0  0  0  0  0  0  0  0  0  0
   16.0752  -28.0650  -11.0279 O   0  0  0  0  0  0  0  0  0  0  0  0
    2.1294  -31.2525   -7.3214 O   0  0  0  0  0  0  0  0  0  0  0  0
   15.0168  -26.1899  -12.7853 O   0  0  0  0  0  0  0  0  0  0  0  0
    1.3609  -29.3119   -9.1566 O   0  0  0  0  0  0  0  0  0  0  0  0
   11.9282  -28.5830   -9.2947 H   0  0  0  0  0  0  0  0  0  0  0  0
    6.4010  -29.8514   -7.8312 H   0  0  0  0  0  0  0  0  0  0  0  0
   14.3291  -29.1220   -9.3771 H   0  0  0  0  0  0  0  0  0  0  0  0
    4.7059  -31.3254   -6.8236 H   0  0  0  0  0  0  0  0  0  0  0  0
   12.4511  -25.7726  -12.5233 H   0  0  0  0  0  0  0  0  0  0  0  0
    3.3195  -27.8619  -10.0985 H   0  0  0  0  0  0  0  0  0  0  0  0
   10.3145  -25.8775  -11.3304 H   0  0  0  0  0  0  0  0  0  0  0  0
    5.5953  -26.9595  -10.0801 H   0  0  0  0  0  0  0  0  0  0  0  0
    9.8937  -28.5537   -9.8503 H   0  0  0  0  0  0  0  0  0  0  0  0
    7.7158  -29.0527   -9.2726 H   0  0  0  0  0  0  0  0  0  0  0  0
   16.2810  -28.7321  -10.3542 H   0  0  0  0  0  0  0  0  0  0  0  0
    2.5592  -31.8688   -6.7077 H   0  0  0  0  0  0  0  0  0  0  0  0
   14.4962  -25.5692  -13.3188 H   0  0  0  0  0  0  0  0  0  0  0  0
    1.2625  -28.5955   -9.8033 H   0  0  0  0  0  0  0  0  0  0  0  0
  1  3  2  0  0  0  0
  1  7  1  0  0  0  0
  2  4  2  0  0  0  0
  2  8  1  0  0  0  0
  3  9  1  0  0  0  0
  4 10  1  0  0  0  0
  5  7  2  0  0  0  0
  5 11  1  0  0  0  0
  6  8  2  0  0  0  0
  6 12  1  0  0  0  0
  7 13  1  0  0  0  0
  8 14  1  0  0  0  0
  9 11  2  0  0  0  0
  9 19  1  0  0  0  0
 10 12  2  0  0  0  0
 10 20  1  0  0  0  0
 11 21  1  0  0  0  0
 12 22  1  0  0  0  0
 13 15  2  0  0  0  0
 14 16  2  0  0  0  0
 15 17  1  0  0  0  0
 16 17  1  0  0  0  0
 17 18  2  0  0  0  0
  1 23  1  0  0  0  0
  2 24  1  0  0  0  0
  3 25  1  0  0  0  0
  4 26  1  0  0  0  0
  5 27  1  0  0  0  0
  6 28  1  0  0  0  0
 13 29  1  0  0  0  0
 14 30  1  0  0  0  0
 15 31  1  0  0  0  0
 16 32  1  0  0  0  0
 19 33  1  0  0  0  0
 20 34  1  0  0  0  0
 21 35  1  0  0  0  0
 22 36  1  0  0  0  0
M  END
> <Hybrid2>
-6.2201247215271

> <Hybrid2>
-6.206231

$$$$
CHEMBL59548
  -OEChem-02152218483D

 39 41  0     0  0  0  0  0  0999 V2000
    4.6519  -29.2433   -8.1748 C   0  0  0  0  0  0  0  0  0  0  0  0
    6.9243  -30.0082   -8.6775 C   0  0  0  0  0  0  0  0  0  0  0  0
    3.7071  -28.2215   -8.1522 C   0  0  0  0  0  0  0  0  0  0  0  0
   11.6894  -25.3597  -11.7325 C   0  0  0  0  0  0  0  0  0  0  0  0
   12.9609  -25.0229  -12.1964 C   0  0  0  0  0  0  0  0  0  0  0  0
    8.2010  -29.7339   -9.1461 C   0  0  0  0  0  0  0  0  0  0  0  0
   12.6003  -27.3243  -10.6614 C   0  0  0  0  0  0  0  0  0  0  0  0
    5.9536  -28.9979   -8.6437 C   0  0  0  0  0  0  0  0  0  0  0  0
   11.5090  -26.5104  -10.9649 C   0  0  0  0  0  0  0  0  0  0  0  0
    4.0581  -26.9529   -8.5971 C   0  0  0  0  0  0  0  0  0  0  0  0
   13.8720  -26.9876  -11.1253 C   0  0  0  0  0  0  0  0  0  0  0  0
    6.3171  -27.7124   -9.0968 C   0  0  0  0  0  0  0  0  0  0  0  0
   14.0523  -25.8369  -11.8928 C   0  0  0  0  0  0  0  0  0  0  0  0
    5.3524  -26.7092   -9.0633 C   0  0  0  0  0  0  0  0  0  0  0  0
    8.4629  -28.4463   -9.5682 C   0  0  0  0  0  0  0  0  0  0  0  0
   10.1654  -26.8659  -10.4752 C   0  0  0  0  0  0  0  0  0  0  0  0
    9.7832  -28.1002  -10.0694 C   0  0  0  0  0  0  0  0  0  0  0  0
    3.0594  -25.8930   -8.5679 C   0  0  0  0  0  0  0  0  0  0  0  0
   14.9980  -27.8511  -10.7981 C   0  0  0  0  0  0  0  0  0  0  0  0
    7.5553  -27.4433   -9.5522 N   0  0  0  0  0  0  0  0  0  0  0  0
    2.6562  -25.2650   -9.5507 O   0  0  0  0  0  0  0  0  0  0  0  0
   16.0019  -28.0116  -11.4981 O   0  0  0  0  0  0  0  0  0  0  0  0
   15.2864  -25.4919  -12.3570 O   0  0  0  0  0  0  0  0  0  0  0  0
    5.6798  -25.4528   -9.4976 O   0  0  0  0  0  0  0  0  0  0  0  0
    2.5955  -25.6526   -7.3118 O   0  0  0  0  0  0  0  0  0  0  0  0
   14.8352  -28.4863   -9.6060 O   0  0  0  0  0  0  0  0  0  0  0  0
    4.3668  -30.2329   -7.8244 H   0  0  0  0  0  0  0  0  0  0  0  0
    6.6903  -31.0147   -8.3384 H   0  0  0  0  0  0  0  0  0  0  0  0
    2.7047  -28.4274   -7.7867 H   0  0  0  0  0  0  0  0  0  0  0  0
   10.8482  -24.7159  -11.9779 H   0  0  0  0  0  0  0  0  0  0  0  0
   13.0949  -24.1258  -12.7948 H   0  0  0  0  0  0  0  0  0  0  0  0
    8.9538  -30.5147   -9.1730 H   0  0  0  0  0  0  0  0  0  0  0  0
   12.4621  -28.2237  -10.0641 H   0  0  0  0  0  0  0  0  0  0  0  0
    9.4614  -26.0390  -10.4210 H   0  0  0  0  0  0  0  0  0  0  0  0
   10.5193  -28.9117  -10.0829 H   0  0  0  0  0  0  0  0  0  0  0  0
   15.2332  -24.6708  -12.8704 H   0  0  0  0  0  0  0  0  0  0  0  0
    4.9140  -24.8669   -9.4151 H   0  0  0  0  0  0  0  0  0  0  0  0
    1.9213  -24.9406   -7.2816 H   0  0  0  0  0  0  0  0  0  0  0  0
   15.5892  -29.0701   -9.3759 H   0  0  0  0  0  0  0  0  0  0  0  0
  1  3  2  0  0  0  0
  1  8  1  0  0  0  0
  2  6  2  0  0  0  0
  2  8  1  0  0  0  0
  3 10  1  0  0  0  0
  4  5  2  0  0  0  0
  4  9  1  0  0  0  0
  5 13  1  0  0  0  0
  6 15  1  0  0  0  0
  7  9  2  0  0  0  0
  7 11  1  0  0  0  0
  8 12  2  0  0  0  0
  9 16  1  0  0  0  0
 10 14  2  0  0  0  0
 10 18  1  0  0  0  0
 11 13  2  0  0  0  0
 11 19  1  0  0  0  0
 12 14  1  0  0  0  0
 12 20  1  0  0  0  0
 13 23  1  0  0  0  0
 14 24  1  0  0  0  0
 15 17  1  0  0  0  0
 15 20  2  0  0  0  0
 16 17  2  0  0  0  0
 18 21  2  0  0  0  0
 18 25  1  0  0  0  0
 19 22  2  0  0  0  0
 19 26  1  0  0  0  0
  1 27  1  0  0  0  0
  2 28  1  0  0  0  0
  3 29  1  0  0  0  0
  4 30  1  0  0  0  0
  5 31  1  0  0  0  0
  6 32  1  0  0  0  0
  7 33  1  0  0  0  0
 16 34  1  0  0  0  0
 17 35  1  0  0  0  0
 23 36  1  0  0  0  0
 24 37  1  0  0  0  0
 25 38  1  0  0  0  0
 26 39  1  0  0  0  0
M  END
> <Hybrid2>
-3.999939441680908

> <Hybrid2>
-3.999939

$$$$
CHEMBL59548
  -OEChem-02152218483D

 39 41  0     0  0  0  0  0  0999 V2000
    4.8582  -26.8777   -8.9993 C   0  0  0  0  0  0  0  0  0  0  0  0
    6.5712  -25.2607   -9.6718 C   0  0  0  0  0  0  0  0  0  0  0  0
    4.4892  -28.1922   -8.7283 C   0  0  0  0  0  0  0  0  0  0  0  0
   13.4168  -27.5681  -10.8807 C   0  0  0  0  0  0  0  0  0  0  0  0
   14.7364  -27.3612  -11.2824 C   0  0  0  0  0  0  0  0  0  0  0  0
    7.8768  -24.9944  -10.0584 C   0  0  0  0  0  0  0  0  0  0  0  0
   12.8001  -25.4209  -11.8006 C   0  0  0  0  0  0  0  0  0  0  0  0
    6.1727  -26.5750   -9.3929 C   0  0  0  0  0  0  0  0  0  0  0  0
   12.4486  -26.5980  -11.1398 C   0  0  0  0  0  0  0  0  0  0  0  0
    5.4299  -29.2074   -8.8491 C   0  0  0  0  0  0  0  0  0  0  0  0
   14.1197  -25.2140  -12.2023 C   0  0  0  0  0  0  0  0  0  0  0  0
    7.1331  -27.6007   -9.5179 C   0  0  0  0  0  0  0  0  0  0  0  0
   15.0879  -26.1842  -11.9431 C   0  0  0  0  0  0  0  0  0  0  0  0
    6.7368  -28.9062   -9.2405 C   0  0  0  0  0  0  0  0  0  0  0  0
    8.7449  -26.0632  -10.1529 C   0  0  0  0  0  0  0  0  0  0  0  0
   11.0546  -26.8168  -10.7151 C   0  0  0  0  0  0  0  0  0  0  0  0
   10.1254  -25.8448  -10.5534 C   0  0  0  0  0  0  0  0  0  0  0  0
    5.0300  -30.5784   -8.5623 C   0  0  0  0  0  0  0  0  0  0  0  0
   14.4663  -23.9780  -12.8899 C   0  0  0  0  0  0  0  0  0  0  0  0
    8.4008  -27.3453   -9.8928 N   0  0  0  0  0  0  0  0  0  0  0  0
    5.5253  -31.2990   -7.6915 O   0  0  0  0  0  0  0  0  0  0  0  0
   15.5655  -23.4185  -12.8426 O   0  0  0  0  0  0  0  0  0  0  0  0
   16.3830  -25.9998  -12.3258 O   0  0  0  0  0  0  0  0  0  0  0  0
    7.6499  -29.9199   -9.3540 O   0  0  0  0  0  0  0  0  0  0  0  0
    4.0231  -31.0046   -9.3718 O   0  0  0  0  0  0  0  0  0  0  0  0
   13.4291  -23.4803  -13.6164 O   0  0  0  0  0  0  0  0  0  0  0  0
    4.1141  -26.0903   -8.9016 H   0  0  0  0  0  0  0  0  0  0  0  0
    5.8656  -24.4371   -9.5892 H   0  0  0  0  0  0  0  0  0  0  0  0
    3.4686  -28.4099   -8.4249 H   0  0  0  0  0  0  0  0  0  0  0  0
   13.1581  -28.4902  -10.3659 H   0  0  0  0  0  0  0  0  0  0  0  0
   15.4863  -28.1203  -11.0767 H   0  0  0  0  0  0  0  0  0  0  0  0
    8.1871  -23.9776  -10.2748 H   0  0  0  0  0  0  0  0  0  0  0  0
   12.0469  -24.6616  -12.0025 H   0  0  0  0  0  0  0  0  0  0  0  0
   10.7791  -27.8569  -10.5580 H   0  0  0  0  0  0  0  0  0  0  0  0
   10.4055  -24.8066  -10.7644 H   0  0  0  0  0  0  0  0  0  0  0  0
   16.9200  -26.7653  -12.0685 H   0  0  0  0  0  0  0  0  0  0  0  0
    7.2326  -30.7642   -9.1314 H   0  0  0  0  0  0  0  0  0  0  0  0
    3.7458  -31.9270   -9.1859 H   0  0  0  0  0  0  0  0  0  0  0  0
   13.6529  -22.6477  -14.0844 H   0  0  0  0  0  0  0  0  0  0  0  0
  1  3  2  0  0  0  0
  1  8  1  0  0  0  0
  2  6  2  0  0  0  0
  2  8  1  0  0  0  0
  3 10  1  0  0  0  0
  4  5  2  0  0  0  0
  4  9  1  0  0  0  0
  5 13  1  0  0  0  0
  6 15  1  0  0  0  0
  7  9  2  0  0  0  0
  7 11  1  0  0  0  0
  8 12  2  0  0  0  0
  9 16  1  0  0  0  0
 10 14  2  0  0  0  0
 10 18  1  0  0  0  0
 11 13  2  0  0  0  0
 11 19  1  0  0  0  0
 12 14  1  0  0  0  0
 12 20  1  0  0  0  0
 13 23  1  0  0  0  0
 14 24  1  0  0  0  0
 15 17  1  0  0  0  0
 15 20  2  0  0  0  0
 16 17  2  0  0  0  0
 18 21  2  0  0  0  0
 18 25  1  0  0  0  0
 19 22  2  0  0  0  0
 19 26  1  0  0  0  0
  1 27  1  0  0  0  0
  2 28  1  0  0  0  0
  3 29  1  0  0  0  0
  4 30  1  0  0  0  0
  5 31  1  0  0  0  0
  6 32  1  0  0  0  0
  7 33  1  0  0  0  0
 16 34  1  0  0  0  0
 17 35  1  0  0  0  0
 23 36  1  0  0  0  0
 24 37  1  0  0  0  0
 25 38  1  0  0  0  0
 26 39  1  0  0  0  0
M  END
> <Hybrid2>
-3.999939441680908

> <Hybrid2>
-3.926222

$$$$
CHEMBL366356
  -OEChem-02152218483D

 33 34  0     0  0  0  0  0  0999 V2000
   12.6640  -27.5114  -11.0210 C   0  0  0  0  0  0  0  0  0  0  0  0
   12.0084  -25.2876  -11.7007 C   0  0  0  0  0  0  0  0  0  0  0  0
    5.6926  -26.8866   -9.2140 C   0  0  0  0  0  0  0  0  0  0  0  0
    8.0063  -27.5785   -9.2829 C   0  0  0  0  0  0  0  0  0  0  0  0
   11.6674  -26.5623  -11.2482 C   0  0  0  0  0  0  0  0  0  0  0  0
    6.6693  -27.8593   -9.0013 C   0  0  0  0  0  0  0  0  0  0  0  0
   14.0015  -27.1858  -11.2461 C   0  0  0  0  0  0  0  0  0  0  0  0
   13.3459  -24.9621  -11.9258 C   0  0  0  0  0  0  0  0  0  0  0  0
    6.0527  -25.6329   -9.7083 C   0  0  0  0  0  0  0  0  0  0  0  0
    8.3665  -26.3248   -9.7772 C   0  0  0  0  0  0  0  0  0  0  0  0
   14.3425  -25.9112  -11.6985 C   0  0  0  0  0  0  0  0  0  0  0  0
    7.3897  -25.3521   -9.9899 C   0  0  0  0  0  0  0  0  0  0  0  0
    6.2943  -29.1675   -8.4885 C   0  0  0  0  0  0  0  0  0  0  0  0
   10.2729  -26.9000  -11.0112 C   0  0  0  0  0  0  0  0  0  0  0  0
    7.0741  -30.0991   -8.2639 O   0  0  0  0  0  0  0  0  0  0  0  0
    9.6656  -27.8119  -11.5899 O   0  0  0  0  0  0  0  0  0  0  0  0
   14.9652  -28.1218  -11.0196 O   0  0  0  0  0  0  0  0  0  0  0  0
   13.6655  -23.7133  -12.3671 O   0  0  0  0  0  0  0  0  0  0  0  0
    5.0889  -24.6920   -9.9122 O   0  0  0  0  0  0  0  0  0  0  0  0
   15.6499  -25.5939  -11.9196 O   0  0  0  0  0  0  0  0  0  0  0  0
    7.7414  -24.1261  -10.4720 O   0  0  0  0  0  0  0  0  0  0  0  0
    4.9553  -29.2763   -8.2688 O   0  0  0  0  0  0  0  0  0  0  0  0
    9.7095  -26.0569  -10.0557 O   0  0  0  0  0  0  0  0  0  0  0  0
   12.4032  -28.5060  -10.6666 H   0  0  0  0  0  0  0  0  0  0  0  0
   11.2346  -24.5446  -11.8799 H   0  0  0  0  0  0  0  0  0  0  0  0
    4.6486  -27.1014   -8.9975 H   0  0  0  0  0  0  0  0  0  0  0  0
    8.7714  -28.3336   -9.1179 H   0  0  0  0  0  0  0  0  0  0  0  0
   14.5631  -28.9485  -10.7099 H   0  0  0  0  0  0  0  0  0  0  0  0
   12.8623  -23.1798  -12.4732 H   0  0  0  0  0  0  0  0  0  0  0  0
    4.2189  -25.0453   -9.6688 H   0  0  0  0  0  0  0  0  0  0  0  0
   15.7236  -24.6780  -12.2295 H   0  0  0  0  0  0  0  0  0  0  0  0
    8.6994  -24.0864  -10.6166 H   0  0  0  0  0  0  0  0  0  0  0  0
    4.6921  -30.1553   -7.9218 H   0  0  0  0  0  0  0  0  0  0  0  0
  1  5  1  0  0  0  0
  1  7  2  0  0  0  0
  2  5  2  0  0  0  0
  2  8  1  0  0  0  0
  3  6  1  0  0  0  0
  3  9  2  0  0  0  0
  4  6  2  0  0  0  0
  4 10  1  0  0  0  0
  5 14  1  0  0  0  0
  6 13  1  0  0  0  0
  7 11  1  0  0  0  0
  7 17  1  0  0  0  0
  8 11  2  0  0  0  0
  8 18  1  0  0  0  0
  9 12  1  0  0  0  0
  9 19  1  0  0  0  0
 10 12  2  0  0  0  0
 10 23  1  0  0  0  0
 11 20  1  0  0  0  0
 12 21  1  0  0  0  0
 13 15  2  0  0  0  0
 13 22  1  0  0  0  0
 14 16  2  0  0  0  0
 14 23  1  0  0  0  0
  1 24  1  0  0  0  0
  2 25  1  0  0  0  0
  3 26  1  0  0  0  0
  4 27  1  0  0  0  0
 17 28  1  0  0  0  0
 18 29  1  0  0  0  0
 19 30  1  0  0  0  0
 20 31  1  0  0  0  0
 21 32  1  0  0  0  0
 22 33  1  0  0  0  0
M  END
> <Hybrid2>
-6.267455101013184

> <Hybrid2>
-6.267455

$$$$
CHEMBL366356
  -OEChem-02152218483D

 33 34  0     0  0  0  0  0  0999 V2000
    8.2372  -28.4384   -9.9054 C   0  0  0  0  0  0  0  0  0  0  0  0
    8.0068  -26.0359  -10.0137 C   0  0  0  0  0  0  0  0  0  0  0  0
   14.3910  -26.2594  -12.5350 C   0  0  0  0  0  0  0  0  0  0  0  0
   12.5748  -26.9193  -11.0849 C   0  0  0  0  0  0  0  0  0  0  0  0
    8.6265  -27.2104  -10.4404 C   0  0  0  0  0  0  0  0  0  0  0  0
   13.9110  -27.0236  -11.4714 C   0  0  0  0  0  0  0  0  0  0  0  0
    7.2282  -28.4918   -8.9437 C   0  0  0  0  0  0  0  0  0  0  0  0
    6.9978  -26.0893   -9.0520 C   0  0  0  0  0  0  0  0  0  0  0  0
   13.5348  -25.3910  -13.2121 C   0  0  0  0  0  0  0  0  0  0  0  0
   11.7186  -26.0509  -11.7621 C   0  0  0  0  0  0  0  0  0  0  0  0
    6.6085  -27.3173   -8.5170 C   0  0  0  0  0  0  0  0  0  0  0  0
   12.1986  -25.2867  -12.8257 C   0  0  0  0  0  0  0  0  0  0  0  0
   14.8036  -27.9272  -10.7631 C   0  0  0  0  0  0  0  0  0  0  0  0
    9.6765  -27.1541  -11.4450 C   0  0  0  0  0  0  0  0  0  0  0  0
   16.0005  -28.0968  -11.0176 O   0  0  0  0  0  0  0  0  0  0  0  0
    9.9156  -28.0575  -12.2588 O   0  0  0  0  0  0  0  0  0  0  0  0
    6.8570  -29.6976   -8.4297 O   0  0  0  0  0  0  0  0  0  0  0  0
    6.4002  -24.9347   -8.6444 O   0  0  0  0  0  0  0  0  0  0  0  0
   14.0165  -24.6498  -14.2488 O   0  0  0  0  0  0  0  0  0  0  0  0
    5.6231  -27.3699   -7.5762 O   0  0  0  0  0  0  0  0  0  0  0  0
   11.3619  -24.4386  -13.4886 O   0  0  0  0  0  0  0  0  0  0  0  0
   14.1770  -28.5938   -9.7550 O   0  0  0  0  0  0  0  0  0  0  0  0
   10.3824  -25.9557  -11.3642 O   0  0  0  0  0  0  0  0  0  0  0  0
    8.7163  -29.3571  -10.2361 H   0  0  0  0  0  0  0  0  0  0  0  0
    8.3075  -25.0761  -10.4275 H   0  0  0  0  0  0  0  0  0  0  0  0
   15.4325  -26.3360  -12.8390 H   0  0  0  0  0  0  0  0  0  0  0  0
   12.1959  -27.5137  -10.2567 H   0  0  0  0  0  0  0  0  0  0  0  0
    7.3818  -30.4084   -8.8301 H   0  0  0  0  0  0  0  0  0  0  0  0
    6.7840  -24.1760   -9.1111 H   0  0  0  0  0  0  0  0  0  0  0  0
   14.9578  -24.8390  -14.3870 H   0  0  0  0  0  0  0  0  0  0  0  0
    5.2943  -26.4776   -7.3866 H   0  0  0  0  0  0  0  0  0  0  0  0
   10.4725  -24.4790  -13.1046 H   0  0  0  0  0  0  0  0  0  0  0  0
   14.7711  -29.2056   -9.2703 H   0  0  0  0  0  0  0  0  0  0  0  0
  1  5  1  0  0  0  0
  1  7  2  0  0  0  0
  2  5  2  0  0  0  0
  2  8  1  0  0  0  0
  3  6  1  0  0  0  0
  3  9  2  0  0  0  0
  4  6  2  0  0  0  0
  4 10  1  0  0  0  0
  5 14  1  0  0  0  0
  6 13  1  0  0  0  0
  7 11  1  0  0  0  0
  7 17  1  0  0  0  0
  8 11  2  0  0  0  0
  8 18  1  0  0  0  0
  9 12  1  0  0  0  0
  9 19  1  0  0  0  0
 10 12  2  0  0  0  0
 10 23  1  0  0  0  0
 11 20  1  0  0  0  0
 12 21  1  0  0  0  0
 13 15  2  0  0  0  0
 13 22  1  0  0  0  0
 14 16  2  0  0  0  0
 14 23  1  0  0  0  0
  1 24  1  0  0  0  0
  2 25  1  0  0  0  0
  3 26  1  0  0  0  0
  4 27  1  0  0  0  0
 17 28  1  0  0  0  0
 18 29  1  0  0  0  0
 19 30  1  0  0  0  0
 20 31  1  0  0  0  0
 21 32  1  0  0  0  0
 22 33  1  0  0  0  0
M  END
> <Hybrid2>
-6.267455101013184

> <Hybrid2>
-5.680800

$$$$
CHEMBL202166
  -OEChem-02152218483D

 48 50  0     0  0  0  0  0  0999 V2000
   13.3207  -26.9232  -11.1954 C   0  0  0  0  0  0  0  0  0  0  0  0
    4.7066  -31.0419  -10.3344 C   0  0  0  0  0  0  0  0  0  0  0  0
   13.8002  -25.9015  -12.0150 C   0  0  0  0  0  0  0  0  0  0  0  0
    3.7618  -31.0268   -9.3084 C   0  0  0  0  0  0  0  0  0  0  0  0
   12.0568  -27.4667  -11.4255 C   0  0  0  0  0  0  0  0  0  0  0  0
    5.9672  -30.4808  -10.1300 C   0  0  0  0  0  0  0  0  0  0  0  0
   13.0158  -25.4231  -13.0645 C   0  0  0  0  0  0  0  0  0  0  0  0
    4.0775  -30.4507   -8.0779 C   0  0  0  0  0  0  0  0  0  0  0  0
   11.2723  -26.9883  -12.4749 C   0  0  0  0  0  0  0  0  0  0  0  0
    6.2830  -29.9047   -8.8995 C   0  0  0  0  0  0  0  0  0  0  0  0
   11.7518  -25.9665  -13.2945 C   0  0  0  0  0  0  0  0  0  0  0  0
    5.3381  -29.8896   -7.8735 C   0  0  0  0  0  0  0  0  0  0  0  0
    8.4802  -26.1783  -11.3523 C   0  0  0  0  0  0  0  0  0  0  0  0
    7.6557  -25.9097  -10.3382 C   0  0  0  0  0  0  0  0  0  0  0  0
    7.3046  -26.9821   -9.3793 C   0  0  0  0  0  0  0  0  0  0  0  0
    8.7780  -28.5127  -10.7152 C   0  0  0  0  0  0  0  0  0  0  0  0
    7.8821  -23.5145   -9.9866 C   0  0  0  0  0  0  0  0  0  0  0  0
    7.1012  -24.5886  -10.1672 C   0  0  0  0  0  0  0  0  0  0  0  0
    7.3332  -22.1484   -9.8097 C   0  0  0  0  0  0  0  0  0  0  0  0
    8.3406  -21.0573   -9.6189 C   0  0  0  0  0  0  0  0  0  0  0  0
    9.9125  -27.5759  -12.7194 C   0  0  0  0  0  0  0  0  0  0  0  0
    7.6409  -29.3020   -8.6833 C   0  0  0  0  0  0  0  0  0  0  0  0
    9.0343  -27.4212  -11.5628 N   0  0  0  0  0  0  0  0  0  0  0  0
    7.9155  -28.2219   -9.6258 N   0  0  0  0  0  0  0  0  0  0  0  0
    6.5253  -26.7646   -8.4520 O   0  0  0  0  0  0  0  0  0  0  0  0
    9.2598  -29.6332  -10.9063 O   0  0  0  0  0  0  0  0  0  0  0  0
    6.1555  -21.8332   -9.8305 O   0  0  0  0  0  0  0  0  0  0  0  0
    9.5349  -21.2737   -9.6100 O   0  0  0  0  0  0  0  0  0  0  0  0
    5.7249  -24.5080  -10.2011 O   0  0  0  0  0  0  0  0  0  0  0  0
    7.7102  -19.8809   -9.5019 O   0  0  0  0  0  0  0  0  0  0  0  0
   11.0054  -25.5004  -14.3055 F   0  0  0  0  0  0  0  0  0  0  0  0
    5.6324  -29.3385   -6.6877 F   0  0  0  0  0  0  0  0  0  0  0  0
   13.9313  -27.2956  -10.3777 H   0  0  0  0  0  0  0  0  0  0  0  0
    4.4606  -31.4900  -11.2929 H   0  0  0  0  0  0  0  0  0  0  0  0
   14.7840  -25.4780  -11.8355 H   0  0  0  0  0  0  0  0  0  0  0  0
    2.7801  -31.4631   -9.4678 H   0  0  0  0  0  0  0  0  0  0  0  0
   11.6912  -28.2621  -10.7813 H   0  0  0  0  0  0  0  0  0  0  0  0
    6.6967  -30.4966  -10.9354 H   0  0  0  0  0  0  0  0  0  0  0  0
   13.3890  -24.6277  -13.7030 H   0  0  0  0  0  0  0  0  0  0  0  0
    3.3422  -30.4391   -7.2787 H   0  0  0  0  0  0  0  0  0  0  0  0
    8.7575  -25.4160  -12.0751 H   0  0  0  0  0  0  0  0  0  0  0  0
    8.9644  -23.6078   -9.9634 H   0  0  0  0  0  0  0  0  0  0  0  0
    9.4308  -27.0914  -13.5758 H   0  0  0  0  0  0  0  0  0  0  0  0
    9.9814  -28.6448  -12.9468 H   0  0  0  0  0  0  0  0  0  0  0  0
    7.7257  -28.8949   -7.6698 H   0  0  0  0  0  0  0  0  0  0  0  0
    8.4279  -30.0548   -8.7983 H   0  0  0  0  0  0  0  0  0  0  0  0
    5.4473  -23.5941  -10.0793 H   0  0  0  0  0  0  0  0  0  0  0  0
    8.3359  -19.1326   -9.3986 H   0  0  0  0  0  0  0  0  0  0  0  0
  1  3  1  0  0  0  0
  1  5  2  0  0  0  0
  2  4  1  0  0  0  0
  2  6  2  0  0  0  0
  3  7  2  0  0  0  0
  4  8  2  0  0  0  0
  5  9  1  0  0  0  0
  6 10  1  0  0  0  0
  7 11  1  0  0  0  0
  8 12  1  0  0  0  0
  9 11  2  0  0  0  0
  9 21  1  0  0  0  0
 10 12  2  0  0  0  0
 10 22  1  0  0  0  0
 11 31  1  0  0  0  0
 12 32  1  0  0  0  0
 13 14  2  0  0  0  0
 13 23  1  0  0  0  0
 14 15  1  0  0  0  0
 14 18  1  0  0  0  0
 15 24  1  0  0  0  0
 15 25  2  0  0  0  0
 16 23  1  0  0  0  0
 16 24  1  0  0  0  0
 16 26  2  0  0  0  0
 17 18  2  0  0  0  0
 17 19  1  0  0  0  0
 18 29  1  0  0  0  0
 19 20  1  0  0  0  0
 19 27  2  0  0  0  0
 20 28  2  0  0  0  0
 20 30  1  0  0  0  0
 21 23  1  0  0  0  0
 22 24  1  0  0  0  0
  1 33  1  0  0  0  0
  2 34  1  0  0  0  0
  3 35  1  0  0  0  0
  4 36  1  0  0  0  0
  5 37  1  0  0  0  0
  6 38  1  0  0  0  0
  7 39  1  0  0  0  0
  8 40  1  0  0  0  0
 13 41  1  0  0  0  0
 17 42  1  0  0  0  0
 21 43  1  0  0  0  0
 21 44  1  0  0  0  0
 22 45  1  0  0  0  0
 22 46  1  0  0  0  0
 29 47  1  0  0  0  0
 30 48  1  0  0  0  0
M  END
> <Hybrid2>
-6.578006744384766

> <Hybrid2>
-6.578007

$$$$
CHEMBL202166
  -OEChem-02152218483D

 48 50  0     0  0  0  0  0  0999 V2000
   13.8065  -26.9831  -11.5078 C   0  0  0  0  0  0  0  0  0  0  0  0
    5.1367  -30.7363   -9.8783 C   0  0  0  0  0  0  0  0  0  0  0  0
   14.2646  -26.0234  -12.4103 C   0  0  0  0  0  0  0  0  0  0  0  0
    4.2621  -30.6338   -8.7965 C   0  0  0  0  0  0  0  0  0  0  0  0
   12.5130  -27.4916  -11.6271 C   0  0  0  0  0  0  0  0  0  0  0  0
    6.4257  -30.2115   -9.7852 C   0  0  0  0  0  0  0  0  0  0  0  0
   13.4292  -25.5719  -13.4321 C   0  0  0  0  0  0  0  0  0  0  0  0
    4.6765  -30.0064   -7.6217 C   0  0  0  0  0  0  0  0  0  0  0  0
   11.6777  -27.0402  -12.6489 C   0  0  0  0  0  0  0  0  0  0  0  0
    6.8402  -29.5841   -8.6104 C   0  0  0  0  0  0  0  0  0  0  0  0
   12.1357  -26.0803  -13.5514 C   0  0  0  0  0  0  0  0  0  0  0  0
    5.9656  -29.4815   -7.5286 C   0  0  0  0  0  0  0  0  0  0  0  0
    8.9931  -26.0722  -11.3963 C   0  0  0  0  0  0  0  0  0  0  0  0
    8.2462  -25.7217  -10.3477 C   0  0  0  0  0  0  0  0  0  0  0  0
    7.9236  -26.7293   -9.3118 C   0  0  0  0  0  0  0  0  0  0  0  0
    9.2553  -28.3797  -10.6539 C   0  0  0  0  0  0  0  0  0  0  0  0
    8.5736  -23.3212  -10.1415 C   0  0  0  0  0  0  0  0  0  0  0  0
    7.7478  -24.3742  -10.2136 C   0  0  0  0  0  0  0  0  0  0  0  0
    8.0826  -21.9287  -10.0042 C   0  0  0  0  0  0  0  0  0  0  0  0
    9.1356  -20.8664   -9.9373 C   0  0  0  0  0  0  0  0  0  0  0  0
   10.2862  -27.5899  -12.7741 C   0  0  0  0  0  0  0  0  0  0  0  0
    8.2285  -29.0206   -8.5140 C   0  0  0  0  0  0  0  0  0  0  0  0
    9.4912  -27.3437  -11.5740 N   0  0  0  0  0  0  0  0  0  0  0  0
    8.4760  -28.0016   -9.5292 N   0  0  0  0  0  0  0  0  0  0  0  0
    7.2143  -26.4359   -8.3498 O   0  0  0  0  0  0  0  0  0  0  0  0
    9.6864  -29.5254  -10.8144 O   0  0  0  0  0  0  0  0  0  0  0  0
    6.9171  -21.5725   -9.9671 O   0  0  0  0  0  0  0  0  0  0  0  0
   10.3203  -21.1253   -9.9928 O   0  0  0  0  0  0  0  0  0  0  0  0
    6.3756  -24.2456  -10.1641 O   0  0  0  0  0  0  0  0  0  0  0  0
    8.5533  -19.6635   -9.8443 O   0  0  0  0  0  0  0  0  0  0  0  0
   11.3405  -25.6406  -14.5366 F   0  0  0  0  0  0  0  0  0  0  0  0
    6.3548  -28.8806   -6.3955 F   0  0  0  0  0  0  0  0  0  0  0  0
   14.4568  -27.3344  -10.7116 H   0  0  0  0  0  0  0  0  0  0  0  0
    4.8138  -31.2244  -10.7935 H   0  0  0  0  0  0  0  0  0  0  0  0
   15.2714  -25.6271  -12.3171 H   0  0  0  0  0  0  0  0  0  0  0  0
    3.2583  -31.0418   -8.8692 H   0  0  0  0  0  0  0  0  0  0  0  0
   12.1646  -28.2386  -10.9189 H   0  0  0  0  0  0  0  0  0  0  0  0
    7.0999  -30.2955  -10.6334 H   0  0  0  0  0  0  0  0  0  0  0  0
   13.7857  -24.8249  -14.1353 H   0  0  0  0  0  0  0  0  0  0  0  0
    3.9959  -29.9267   -6.7790 H   0  0  0  0  0  0  0  0  0  0  0  0
    9.2474  -25.3591  -12.1754 H   0  0  0  0  0  0  0  0  0  0  0  0
    9.6515  -23.4523  -10.1822 H   0  0  0  0  0  0  0  0  0  0  0  0
    9.7656  -27.1335  -13.6230 H   0  0  0  0  0  0  0  0  0  0  0  0
   10.3049  -28.6711  -12.9472 H   0  0  0  0  0  0  0  0  0  0  0  0
    8.3928  -28.5648   -7.5315 H   0  0  0  0  0  0  0  0  0  0  0  0
    8.9810  -29.8064   -8.6379 H   0  0  0  0  0  0  0  0  0  0  0  0
    6.1367  -23.3172  -10.0746 H   0  0  0  0  0  0  0  0  0  0  0  0
    9.2086  -18.9340   -9.8217 H   0  0  0  0  0  0  0  0  0  0  0  0
  1  3  1  0  0  0  0
  1  5  2  0  0  0  0
  2  4  1  0  0  0  0
  2  6  2  0  0  0  0
  3  7  2  0  0  0  0
  4  8  2  0  0  0  0
  5  9  1  0  0  0  0
  6 10  1  0  0  0  0
  7 11  1  0  0  0  0
  8 12  1  0  0  0  0
  9 11  2  0  0  0  0
  9 21  1  0  0  0  0
 10 12  2  0  0  0  0
 10 22  1  0  0  0  0
 11 31  1  0  0  0  0
 12 32  1  0  0  0  0
 13 14  2  0  0  0  0
 13 23  1  0  0  0  0
 14 15  1  0  0  0  0
 14 18  1  0  0  0  0
 15 24  1  0  0  0  0
 15 25  2  0  0  0  0
 16 23  1  0  0  0  0
 16 24  1  0  0  0  0
 16 26  2  0  0  0  0
 17 18  2  0  0  0  0
 17 19  1  0  0  0  0
 18 29  1  0  0  0  0
 19 20  1  0  0  0  0
 19 27  2  0  0  0  0
 20 28  2  0  0  0  0
 20 30  1  0  0  0  0
 21 23  1  0  0  0  0
 22 24  1  0  0  0  0
  1 33  1  0  0  0  0
  2 34  1  0  0  0  0
  3 35  1  0  0  0  0
  4 36  1  0  0  0  0
  5 37  1  0  0  0  0
  6 38  1  0  0  0  0
  7 39  1  0  0  0  0
  8 40  1  0  0  0  0
 13 41  1  0  0  0  0
 17 42  1  0  0  0  0
 21 43  1  0  0  0  0
 21 44  1  0  0  0  0
 22 45  1  0  0  0  0
 22 46  1  0  0  0  0
 29 47  1  0  0  0  0
 30 48  1  0  0  0  0
M  END
> <Hybrid2>
-6.578006744384766

> <Hybrid2>
-5.732608

$$$$
CHEMBL209614
  -OEChem-02152218483D

 33 34  0     0  0  0  0  0  0999 V2000
   14.7513  -27.3571  -10.7640 C   0  0  0  0  0  0  0  0  0  0  0  0
   14.0394  -27.5175   -9.5790 C   0  0  0  0  0  0  0  0  0  0  0  0
   10.5770  -26.7585  -13.1906 C   0  0  0  0  0  0  0  0  0  0  0  0
   14.0724  -27.1281  -11.9611 C   0  0  0  0  0  0  0  0  0  0  0  0
   12.6460  -27.4494   -9.5864 C   0  0  0  0  0  0  0  0  0  0  0  0
   11.9704  -26.8265  -13.1831 C   0  0  0  0  0  0  0  0  0  0  0  0
    9.8651  -26.9188  -12.0056 C   0  0  0  0  0  0  0  0  0  0  0  0
   12.6701  -27.0564  -11.9873 C   0  0  0  0  0  0  0  0  0  0  0  0
   11.9462  -27.2195  -10.7822 C   0  0  0  0  0  0  0  0  0  0  0  0
   10.5439  -27.1480  -10.8084 C   0  0  0  0  0  0  0  0  0  0  0  0
    9.7280  -27.3077   -9.6078 C   0  0  0  0  0  0  0  0  0  0  0  0
    4.8214  -28.8189   -9.0059 C   0  0  0  0  0  0  0  0  0  0  0  0
    3.8384  -29.9494   -8.8905 C   0  0  0  0  0  0  0  0  0  0  0  0
    7.2472  -28.0456   -9.3365 C   0  0  0  0  0  0  0  0  0  0  0  0
    8.7005  -28.4420   -9.5368 C   0  0  0  0  0  0  0  0  0  0  0  0
    6.2631  -29.1964   -9.2343 C   0  0  0  0  0  0  0  0  0  0  0  0
    9.8831  -26.5432   -8.6393 O   0  0  0  0  0  0  0  0  0  0  0  0
    4.3806  -27.6857   -8.8869 O   0  0  0  0  0  0  0  0  0  0  0  0
    4.1684  -31.1085   -9.0393 O   0  0  0  0  0  0  0  0  0  0  0  0
    6.8847  -26.8705   -9.3267 O   0  0  0  0  0  0  0  0  0  0  0  0
    2.6092  -29.4669   -8.6684 O   0  0  0  0  0  0  0  0  0  0  0  0
   15.8362  -27.4097  -10.7569 H   0  0  0  0  0  0  0  0  0  0  0  0
   14.5690  -27.6937   -8.6473 H   0  0  0  0  0  0  0  0  0  0  0  0
   10.0479  -26.5796  -14.1222 H   0  0  0  0  0  0  0  0  0  0  0  0
   14.6492  -27.0051  -12.8756 H   0  0  0  0  0  0  0  0  0  0  0  0
   12.1269  -27.5785   -8.6397 H   0  0  0  0  0  0  0  0  0  0  0  0
   12.5065  -26.6986  -14.1212 H   0  0  0  0  0  0  0  0  0  0  0  0
    8.7795  -26.8631  -12.0270 H   0  0  0  0  0  0  0  0  0  0  0  0
    8.7360  -29.0079  -10.4738 H   0  0  0  0  0  0  0  0  0  0  0  0
    8.9915  -29.0858   -8.6996 H   0  0  0  0  0  0  0  0  0  0  0  0
    6.3293  -29.7601  -10.1711 H   0  0  0  0  0  0  0  0  0  0  0  0
    6.5712  -29.8356   -8.4003 H   0  0  0  0  0  0  0  0  0  0  0  0
    1.9325  -30.1760   -8.6305 H   0  0  0  0  0  0  0  0  0  0  0  0
  1  2  1  0  0  0  0
  1  4  2  0  0  0  0
  2  5  2  0  0  0  0
  3  6  1  0  0  0  0
  3  7  2  0  0  0  0
  4  8  1  0  0  0  0
  5  9  1  0  0  0  0
  6  8  2  0  0  0  0
  7 10  1  0  0  0  0
  8  9  1  0  0  0  0
  9 10  2  0  0  0  0
 10 11  1  0  0  0  0
 11 15  1  0  0  0  0
 11 17  2  0  0  0  0
 12 13  1  0  0  0  0
 12 16  1  0  0  0  0
 12 18  2  0  0  0  0
 13 19  2  0  0  0  0
 13 21  1  0  0  0  0
 14 15  1  0  0  0  0
 14 16  1  0  0  0  0
 14 20  2  0  0  0  0
  1 22  1  0  0  0  0
  2 23  1  0  0  0  0
  3 24  1  0  0  0  0
  4 25  1  0  0  0  0
  5 26  1  0  0  0  0
  6 27  1  0  0  0  0
  7 28  1  0  0  0  0
 15 29  1  0  0  0  0
 15 30  1  0  0  0  0
 16 31  1  0  0  0  0
 16 32  1  0  0  0  0
 21 33  1  0  0  0  0
M  END
> <Hybrid2>
-5.137459754943848

> <Hybrid2>
-5.137460

$$$$
CHEMBL209614
  -OEChem-02152218483D

 33 34  0     0  0  0  0  0  0999 V2000
   15.2359  -27.9074  -10.2744 C   0  0  0  0  0  0  0  0  0  0  0  0
   14.2631  -27.8979   -9.2792 C   0  0  0  0  0  0  0  0  0  0  0  0
   11.9731  -26.2483  -13.4797 C   0  0  0  0  0  0  0  0  0  0  0  0
   14.9142  -27.5004  -11.5695 C   0  0  0  0  0  0  0  0  0  0  0  0
   12.9649  -27.4813   -9.5752 C   0  0  0  0  0  0  0  0  0  0  0  0
   13.2712  -26.6649  -13.1836 C   0  0  0  0  0  0  0  0  0  0  0  0
   11.0003  -26.2388  -12.4844 C   0  0  0  0  0  0  0  0  0  0  0  0
   13.6127  -27.0779  -11.8854 C   0  0  0  0  0  0  0  0  0  0  0  0
   12.6234  -27.0683  -10.8734 C   0  0  0  0  0  0  0  0  0  0  0  0
   11.3219  -26.6459  -11.1893 C   0  0  0  0  0  0  0  0  0  0  0  0
   10.2476  -26.6097  -10.2007 C   0  0  0  0  0  0  0  0  0  0  0  0
    5.6804  -28.6228   -8.8558 C   0  0  0  0  0  0  0  0  0  0  0  0
    4.8453  -29.8493   -8.6190 C   0  0  0  0  0  0  0  0  0  0  0  0
    7.9303  -27.6010   -9.5524 C   0  0  0  0  0  0  0  0  0  0  0  0
    9.3619  -27.8439  -10.0007 C   0  0  0  0  0  0  0  0  0  0  0  0
    7.0940  -28.8475   -9.3292 C   0  0  0  0  0  0  0  0  0  0  0  0
   10.0680  -25.5925   -9.5083 O   0  0  0  0  0  0  0  0  0  0  0  0
    5.1568  -27.5425   -8.6286 O   0  0  0  0  0  0  0  0  0  0  0  0
    5.2577  -30.9661   -8.8583 O   0  0  0  0  0  0  0  0  0  0  0  0
    7.4614  -26.4692   -9.4443 O   0  0  0  0  0  0  0  0  0  0  0  0
    3.6289  -29.4983   -8.1830 O   0  0  0  0  0  0  0  0  0  0  0  0
   16.2464  -28.2314  -10.0426 H   0  0  0  0  0  0  0  0  0  0  0  0
   14.5151  -28.2130   -8.2708 H   0  0  0  0  0  0  0  0  0  0  0  0
   11.7222  -25.9308  -14.4876 H   0  0  0  0  0  0  0  0  0  0  0  0
   15.6907  -27.5154  -12.3318 H   0  0  0  0  0  0  0  0  0  0  0  0
   12.2344  -27.4871   -8.7698 H   0  0  0  0  0  0  0  0  0  0  0  0
   14.0156  -26.6646  -13.9770 H   0  0  0  0  0  0  0  0  0  0  0  0
    9.9931  -25.9115  -12.7301 H   0  0  0  0  0  0  0  0  0  0  0  0
    9.2965  -28.3874  -10.9492 H   0  0  0  0  0  0  0  0  0  0  0  0
    9.8493  -28.4686   -9.2442 H   0  0  0  0  0  0  0  0  0  0  0  0
    7.0586  -29.3858  -10.2825 H   0  0  0  0  0  0  0  0  0  0  0  0
    7.5972  -29.4660   -8.5786 H   0  0  0  0  0  0  0  0  0  0  0  0
    3.0404  -30.2731   -8.0587 H   0  0  0  0  0  0  0  0  0  0  0  0
  1  2  1  0  0  0  0
  1  4  2  0  0  0  0
  2  5  2  0  0  0  0
  3  6  1  0  0  0  0
  3  7  2  0  0  0  0
  4  8  1  0  0  0  0
  5  9  1  0  0  0  0
  6  8  2  0  0  0  0
  7 10  1  0  0  0  0
  8  9  1  0  0  0  0
  9 10  2  0  0  0  0
 10 11  1  0  0  0  0
 11 15  1  0  0  0  0
 11 17  2  0  0  0  0
 12 13  1  0  0  0  0
 12 16  1  0  0  0  0
 12 18  2  0  0  0  0
 13 19  2  0  0  0  0
 13 21  1  0  0  0  0
 14 15  1  0  0  0  0
 14 16  1  0  0  0  0
 14 20  2  0  0  0  0
  1 22  1  0  0  0  0
  2 23  1  0  0  0  0
  3 24  1  0  0  0  0
  4 25  1  0  0  0  0
  5 26  1  0  0  0  0
  6 27  1  0  0  0  0
  7 28  1  0  0  0  0
 15 29  1  0  0  0  0
 15 30  1  0  0  0  0
 16 31  1  0  0  0  0
 16 32  1  0  0  0  0
 21 33  1  0  0  0  0
M  END
> <Hybrid2>
-5.137459754943848

> <Hybrid2>
-5.079384

$$$$
CHEMBL441250
  -OEChem-02152218483D

 61 63  0     1  0  0  0  0  0999 V2000
   16.9644  -24.9103  -12.3567 C   0  0  0  0  0  0  0  0  0  0  0  0
    3.9384  -29.5768   -9.2013 C   0  0  0  0  0  0  0  0  0  0  0  0
   16.6505  -23.7315  -13.0330 C   0  0  0  0  0  0  0  0  0  0  0  0
    3.1600  -28.5651   -9.7635 C   0  0  0  0  0  0  0  0  0  0  0  0
   15.0340  -24.6091  -10.9355 C   0  0  0  0  0  0  0  0  0  0  0  0
    5.6522  -27.9604   -8.6652 C   0  0  0  0  0  0  0  0  0  0  0  0
   16.1562  -25.3491  -11.3079 C   0  0  0  0  0  0  0  0  0  0  0  0
    5.1845  -29.2745   -8.6521 C   0  0  0  0  0  0  0  0  0  0  0  0
   15.5283  -22.9914  -12.6606 C   0  0  0  0  0  0  0  0  0  0  0  0
    3.6277  -27.2511   -9.7767 C   0  0  0  0  0  0  0  0  0  0  0  0
   14.7201  -23.4302  -11.6118 C   0  0  0  0  0  0  0  0  0  0  0  0
    4.8738  -26.9487   -9.2275 C   0  0  0  0  0  0  0  0  0  0  0  0
   16.4865  -26.5959  -10.5954 C   0  0  0  0  0  0  0  0  0  0  0  0
    6.0054  -30.3430   -8.0557 C   0  0  0  0  0  0  0  0  0  0  0  0
   15.6826  -27.6662  -10.5211 C   0  0  0  0  0  0  0  0  0  0  0  0
    7.2330  -30.6830   -8.4737 C   0  0  0  0  0  0  0  0  0  0  0  0
   14.3613  -27.6338  -11.1883 C   0  0  0  0  0  0  0  0  0  0  0  0
    7.8429  -29.9583   -9.6117 C   0  0  0  0  0  0  0  0  0  0  0  0
    9.8038  -26.5596  -12.4629 C   0  0  0  0  0  0  0  0  0  0  0  0
   11.5571  -26.3730  -10.6848 C   0  0  0  0  0  0  0  0  0  0  0  0
    9.2257  -27.1841  -10.1242 C   0  0  0  0  0  0  0  0  0  0  0  0
   12.0589  -27.8160  -10.6978 C   0  0  2  0  0  0  0  0  0  0  0  0
    9.7223  -28.6298  -10.1393 C   0  0  1  0  0  0  0  0  0  0  0  0
   11.2122  -28.7255   -9.8056 C   0  0  0  0  0  0  0  0  0  0  0  0
   10.0689  -26.2583  -10.9950 C   0  0  0  0  0  0  0  0  0  0  0  0
   14.1752  -27.4724  -12.3840 O   0  0  0  0  0  0  0  0  0  0  0  0
    7.3837  -29.8983  -10.7412 O   0  0  0  0  0  0  0  0  0  0  0  0
   10.6592  -26.8533  -13.2847 O   0  0  0  0  0  0  0  0  0  0  0  0
   15.2328  -21.8419  -13.3291 O   0  0  0  0  0  0  0  0  0  0  0  0
    2.8578  -26.2723  -10.3288 O   0  0  0  0  0  0  0  0  0  0  0  0
   13.6222  -22.7149  -11.2390 O   0  0  0  0  0  0  0  0  0  0  0  0
    5.3409  -25.6690   -9.2358 O   0  0  0  0  0  0  0  0  0  0  0  0
    8.4814  -26.4557  -12.7417 O   0  0  0  0  0  0  0  0  0  0  0  0
   11.6461  -30.0722  -10.0151 O   0  0  0  0  0  0  0  0  0  0  0  0
    9.6441  -24.9127  -10.8062 O   0  0  0  0  0  0  0  0  0  0  0  0
   13.4083  -27.8166  -10.2320 O   0  0  0  0  0  0  0  0  0  0  0  0
    8.9935  -29.3795   -9.1674 O   0  0  0  0  0  0  0  0  0  0  0  0
   17.8417  -25.4771  -12.6590 H   0  0  0  0  0  0  0  0  0  0  0  0
    3.5601  -30.5962   -9.1973 H   0  0  0  0  0  0  0  0  0  0  0  0
   17.2844  -23.3951  -13.8490 H   0  0  0  0  0  0  0  0  0  0  0  0
    2.1903  -28.8074  -10.1898 H   0  0  0  0  0  0  0  0  0  0  0  0
   14.3979  -24.9442  -10.1191 H   0  0  0  0  0  0  0  0  0  0  0  0
    6.6225  -27.7157   -8.2387 H   0  0  0  0  0  0  0  0  0  0  0  0
   17.4681  -26.6159  -10.1271 H   0  0  0  0  0  0  0  0  0  0  0  0
    5.5557  -30.8542   -7.2074 H   0  0  0  0  0  0  0  0  0  0  0  0
   15.9548  -28.5646   -9.9781 H   0  0  0  0  0  0  0  0  0  0  0  0
    7.8048  -31.4832   -8.0168 H   0  0  0  0  0  0  0  0  0  0  0  0
   11.7655  -25.9234   -9.7034 H   0  0  0  0  0  0  0  0  0  0  0  0
   12.1521  -25.7706  -11.3844 H   0  0  0  0  0  0  0  0  0  0  0  0
    8.1700  -27.1543  -10.4264 H   0  0  0  0  0  0  0  0  0  0  0  0
    9.2168  -26.8114   -9.0900 H   0  0  0  0  0  0  0  0  0  0  0  0
   12.0766  -28.1992  -11.7247 H   0  0  0  0  0  0  0  0  0  0  0  0
    9.5252  -29.0921  -11.1139 H   0  0  0  0  0  0  0  0  0  0  0  0
   11.3928  -28.5018   -8.7463 H   0  0  0  0  0  0  0  0  0  0  0  0
   15.8895  -21.6803  -14.0246 H   0  0  0  0  0  0  0  0  0  0  0  0
    2.0277  -26.6472  -10.6630 H   0  0  0  0  0  0  0  0  0  0  0  0
   13.1725  -23.1524  -10.4992 H   0  0  0  0  0  0  0  0  0  0  0  0
    6.2161  -25.6290   -8.8193 H   0  0  0  0  0  0  0  0  0  0  0  0
    8.2898  -26.6446  -13.6850 H   0  0  0  0  0  0  0  0  0  0  0  0
   11.5059  -30.2592  -10.9548 H   0  0  0  0  0  0  0  0  0  0  0  0
   10.1788  -24.3677  -11.4041 H   0  0  0  0  0  0  0  0  0  0  0  0
  1  3  2  0  0  0  0
  1  7  1  0  0  0  0
  2  4  2  0  0  0  0
  2  8  1  0  0  0  0
  3  9  1  0  0  0  0
  4 10  1  0  0  0  0
  5  7  2  0  0  0  0
  5 11  1  0  0  0  0
  6  8  2  0  0  0  0
  6 12  1  0  0  0  0
  7 13  1  0  0  0  0
  8 14  1  0  0  0  0
  9 11  2  0  0  0  0
  9 29  1  0  0  0  0
 10 12  2  0  0  0  0
 10 30  1  0  0  0  0
 11 31  1  0  0  0  0
 12 32  1  0  0  0  0
 13 15  2  0  0  0  0
 14 16  2  0  0  0  0
 15 17  1  0  0  0  0
 16 18  1  0  0  0  0
 17 26  2  0  0  0  0
 17 36  1  0  0  0  0
 18 27  2  0  0  0  0
 18 37  1  0  0  0  0
 19 25  1  0  0  0  0
 19 28  2  0  0  0  0
 19 33  1  0  0  0  0
 20 22  1  0  0  0  0
 20 25  1  0  0  0  0
 21 23  1  0  0  0  0
 21 25  1  0  0  0  0
 22 24  1  0  0  0  0
 22 36  1  0  0  0  0
 23 24  1  0  0  0  0
 23 37  1  0  0  0  0
 24 34  1  0  0  0  0
 25 35  1  0  0  0  0
  1 38  1  0  0  0  0
  2 39  1  0  0  0  0
  3 40  1  0  0  0  0
  4 41  1  0  0  0  0
  5 42  1  0  0  0  0
  6 43  1  0  0  0  0
 13 44  1  0  0  0  0
 14 45  1  0  0  0  0
 15 46  1  0  0  0  0
 16 47  1  0  0  0  0
 20 48  1  0  0  0  0
 20 49  1  0  0  0  0
 21 50  1  0  0  0  0
 21 51  1  0  0  0  0
 22 52  1  0  0  0  0
 23 53  1  0  0  0  0
 24 54  1  0  0  0  0
 29 55  1  0  0  0  0
 30 56  1  0  0  0  0
 31 57  1  0  0  0  0
 32 58  1  0  0  0  0
 33 59  1  0  0  0  0
 34 60  1  0  0  0  0
 35 61  1  0  0  0  0
M  END
> <Hybrid2>
-1.5070807933807373

> <Hybrid2>
-1.507081

$$$$
CHEMBL441250
  -OEChem-02152218483D

 61 63  0     1  0  0  0  0  0999 V2000
   14.2104  -25.9705  -12.6546 C   0  0  0  0  0  0  0  0  0  0  0  0
    0.7600  -29.0115   -8.7337 C   0  0  0  0  0  0  0  0  0  0  0  0
   14.1190  -25.8043  -14.0365 C   0  0  0  0  0  0  0  0  0  0  0  0
    0.0062  -27.8383   -8.7647 C   0  0  0  0  0  0  0  0  0  0  0  0
   12.5907  -27.7599  -12.7627 C   0  0  0  0  0  0  0  0  0  0  0  0
    2.5605  -27.8259   -7.6428 C   0  0  0  0  0  0  0  0  0  0  0  0
   13.4463  -26.9484  -12.0177 C   0  0  0  0  0  0  0  0  0  0  0  0
    2.0371  -29.0053   -8.1727 C   0  0  0  0  0  0  0  0  0  0  0  0
   13.2634  -26.6158  -14.7815 C   0  0  0  0  0  0  0  0  0  0  0  0
    0.5295  -26.6589   -8.2348 C   0  0  0  0  0  0  0  0  0  0  0  0
   12.4993  -27.5937  -14.1446 C   0  0  0  0  0  0  0  0  0  0  0  0
    1.8067  -26.6526   -7.6738 C   0  0  0  0  0  0  0  0  0  0  0  0
   13.5451  -27.1256  -10.5582 C   0  0  0  0  0  0  0  0  0  0  0  0
    2.8322  -30.2455   -8.1377 C   0  0  0  0  0  0  0  0  0  0  0  0
   12.5203  -26.9929   -9.7042 C   0  0  0  0  0  0  0  0  0  0  0  0
    4.0279  -30.4000   -8.7238 C   0  0  0  0  0  0  0  0  0  0  0  0
   11.1783  -26.6446  -10.2234 C   0  0  0  0  0  0  0  0  0  0  0  0
    4.6269  -29.2692   -9.4685 C   0  0  0  0  0  0  0  0  0  0  0  0
    6.6282  -25.0190  -10.6752 C   0  0  0  0  0  0  0  0  0  0  0  0
    8.4513  -25.6600   -9.0827 C   0  0  0  0  0  0  0  0  0  0  0  0
    6.1089  -26.5790   -8.8070 C   0  0  0  0  0  0  0  0  0  0  0  0
    8.8894  -26.9670   -9.7416 C   0  0  2  0  0  0  0  0  0  0  0  0
    6.5416  -27.8875   -9.4685 C   0  0  1  0  0  0  0  0  0  0  0  0
    8.0371  -28.1527   -9.2856 C   0  0  0  0  0  0  0  0  0  0  0  0
    6.9592  -25.3879   -9.2363 C   0  0  0  0  0  0  0  0  0  0  0  0
   10.9561  -25.9781  -11.2218 O   0  0  0  0  0  0  0  0  0  0  0  0
    4.1301  -28.7163  -10.4369 O   0  0  0  0  0  0  0  0  0  0  0  0
    7.4397  -24.9486  -11.5861 O   0  0  0  0  0  0  0  0  0  0  0  0
   13.1834  -26.4432  -16.1303 O   0  0  0  0  0  0  0  0  0  0  0  0
   -0.2168  -25.5199   -8.2714 O   0  0  0  0  0  0  0  0  0  0  0  0
   11.6597  -28.3912  -14.8622 O   0  0  0  0  0  0  0  0  0  0  0  0
    2.3281  -25.5063   -7.1543 O   0  0  0  0  0  0  0  0  0  0  0  0
    5.3023  -24.7739  -10.8136 O   0  0  0  0  0  0  0  0  0  0  0  0
    8.4044  -29.2864  -10.0766 O   0  0  0  0  0  0  0  0  0  0  0  0
    6.6002  -24.2464   -8.4650 O   0  0  0  0  0  0  0  0  0  0  0  0
   10.2536  -27.2004   -9.3915 O   0  0  0  0  0  0  0  0  0  0  0  0
    5.8168  -28.9663   -8.8781 O   0  0  0  0  0  0  0  0  0  0  0  0
   14.8826  -25.3312  -12.0873 H   0  0  0  0  0  0  0  0  0  0  0  0
    0.3384  -29.9234   -9.1496 H   0  0  0  0  0  0  0  0  0  0  0  0
   14.7169  -25.0406  -14.5265 H   0  0  0  0  0  0  0  0  0  0  0  0
   -0.9879  -27.8499   -9.2033 H   0  0  0  0  0  0  0  0  0  0  0  0
   11.9915  -28.5252  -12.2742 H   0  0  0  0  0  0  0  0  0  0  0  0
    3.5553  -27.8122   -7.2030 H   0  0  0  0  0  0  0  0  0  0  0  0
   14.5309  -27.4018  -10.1905 H   0  0  0  0  0  0  0  0  0  0  0  0
    2.3919  -31.0624   -7.5702 H   0  0  0  0  0  0  0  0  0  0  0  0
   12.6323  -27.1206   -8.6330 H   0  0  0  0  0  0  0  0  0  0  0  0
    4.5808  -31.3322   -8.6861 H   0  0  0  0  0  0  0  0  0  0  0  0
    8.7145  -25.6836   -8.0155 H   0  0  0  0  0  0  0  0  0  0  0  0
    9.0461  -24.8285   -9.4843 H   0  0  0  0  0  0  0  0  0  0  0  0
    5.0452  -26.3969   -9.0121 H   0  0  0  0  0  0  0  0  0  0  0  0
    6.1537  -26.6897   -7.7141 H   0  0  0  0  0  0  0  0  0  0  0  0
    8.8533  -26.8691  -10.8328 H   0  0  0  0  0  0  0  0  0  0  0  0
    6.2894  -27.8785  -10.5357 H   0  0  0  0  0  0  0  0  0  0  0  0
    8.2655  -28.4129   -8.2441 H   0  0  0  0  0  0  0  0  0  0  0  0
   13.7745  -25.7276  -16.4124 H   0  0  0  0  0  0  0  0  0  0  0  0
   -1.0739  -25.6941   -8.6912 H   0  0  0  0  0  0  0  0  0  0  0  0
   11.2043  -29.0136  -14.2737 H   0  0  0  0  0  0  0  0  0  0  0  0
    3.2187  -25.6707   -6.8068 H   0  0  0  0  0  0  0  0  0  0  0  0
    5.0687  -24.5322  -11.7352 H   0  0  0  0  0  0  0  0  0  0  0  0
    8.2223  -29.0457  -10.9966 H   0  0  0  0  0  0  0  0  0  0  0  0
    7.1359  -23.5092   -8.7966 H   0  0  0  0  0  0  0  0  0  0  0  0
  1  3  2  0  0  0  0
  1  7  1  0  0  0  0
  2  4  2  0  0  0  0
  2  8  1  0  0  0  0
  3  9  1  0  0  0  0
  4 10  1  0  0  0  0
  5  7  2  0  0  0  0
  5 11  1  0  0  0  0
  6  8  2  0  0  0  0
  6 12  1  0  0  0  0
  7 13  1  0  0  0  0
  8 14  1  0  0  0  0
  9 11  2  0  0  0  0
  9 29  1  0  0  0  0
 10 12  2  0  0  0  0
 10 30  1  0  0  0  0
 11 31  1  0  0  0  0
 12 32  1  0  0  0  0
 13 15  2  0  0  0  0
 14 16  2  0  0  0  0
 15 17  1  0  0  0  0
 16 18  1  0  0  0  0
 17 26  2  0  0  0  0
 17 36  1  0  0  0  0
 18 27  2  0  0  0  0
 18 37  1  0  0  0  0
 19 25  1  0  0  0  0
 19 28  2  0  0  0  0
 19 33  1  0  0  0  0
 20 22  1  0  0  0  0
 20 25  1  0  0  0  0
 21 23  1  0  0  0  0
 21 25  1  0  0  0  0
 22 24  1  0  0  0  0
 22 36  1  0  0  0  0
 23 24  1  0  0  0  0
 23 37  1  0  0  0  0
 24 34  1  0  0  0  0
 25 35  1  0  0  0  0
  1 38  1  0  0  0  0
  2 39  1  0  0  0  0
  3 40  1  0  0  0  0
  4 41  1  0  0  0  0
  5 42  1  0  0  0  0
  6 43  1  0  0  0  0
 13 44  1  0  0  0  0
 14 45  1  0  0  0  0
 15 46  1  0  0  0  0
 16 47  1  0  0  0  0
 20 48  1  0  0  0  0
 20 49  1  0  0  0  0
 21 50  1  0  0  0  0
 21 51  1  0  0  0  0
 22 52  1  0  0  0  0
 23 53  1  0  0  0  0
 24 54  1  0  0  0  0
 29 55  1  0  0  0  0
 30 56  1  0  0  0  0
 31 57  1  0  0  0  0
 32 58  1  0  0  0  0
 33 59  1  0  0  0  0
 34 60  1  0  0  0  0
 35 61  1  0  0  0  0
M  END
> <Hybrid2>
-1.5070807933807373

> <Hybrid2>
-1.144849

$$$$
CHEMBL35109
  -OEChem-02152218483D

 28 30  0     0  0  0  0  0  0999 V2000
    6.0507  -28.5990   -7.5531 C   0  0  0  0  0  0  0  0  0  0  0  0
    6.3641  -29.8999   -7.9572 C   0  0  0  0  0  0  0  0  0  0  0  0
    7.7417  -29.0654   -9.7746 C   0  0  0  0  0  0  0  0  0  0  0  0
    7.1943  -25.5192   -9.0775 C   0  0  0  0  0  0  0  0  0  0  0  0
    7.4398  -27.7450   -9.3859 C   0  0  0  0  0  0  0  0  0  0  0  0
    7.8052  -26.4595   -9.8747 C   0  0  0  0  0  0  0  0  0  0  0  0
    6.6030  -27.5427   -8.2863 C   0  0  0  0  0  0  0  0  0  0  0  0
    7.1963  -30.1318   -9.0505 C   0  0  0  0  0  0  0  0  0  0  0  0
   12.2837  -26.7078  -12.0887 C   0  0  0  0  0  0  0  0  0  0  0  0
    9.9599  -26.5428  -11.0654 C   0  0  0  0  0  0  0  0  0  0  0  0
    8.6387  -26.1530  -10.9727 C   0  0  0  0  0  0  0  0  0  0  0  0
   10.8847  -26.2266  -12.1922 C   0  0  0  0  0  0  0  0  0  0  0  0
   12.7583  -27.4166  -11.0254 N   0  0  0  0  0  0  0  0  0  0  0  0
   13.1924  -26.4780  -13.0399 N   0  0  0  0  0  0  0  0  0  0  0  0
   14.0353  -27.6627  -11.2907 N   0  0  0  0  0  0  0  0  0  0  0  0
    6.4716  -26.1822   -8.1222 N   0  0  0  0  0  0  0  0  0  0  0  0
   14.2468  -27.0918  -12.4847 N   0  0  0  0  0  0  0  0  0  0  0  0
   10.5404  -25.5695  -13.1675 O   0  0  0  0  0  0  0  0  0  0  0  0
    8.0527  -25.3961  -12.0027 O   0  0  0  0  0  0  0  0  0  0  0  0
    7.5624  -31.7490   -9.5188 Cl  0  0  0  0  0  0  0  0  0  0  0  0
    5.4026  -28.4192   -6.7018 H   0  0  0  0  0  0  0  0  0  0  0  0
    5.9441  -30.7334   -7.3983 H   0  0  0  0  0  0  0  0  0  0  0  0
    8.3900  -29.2488  -10.6276 H   0  0  0  0  0  0  0  0  0  0  0  0
    7.2048  -24.4379   -9.0998 H   0  0  0  0  0  0  0  0  0  0  0  0
   10.3778  -27.1092  -10.2380 H   0  0  0  0  0  0  0  0  0  0  0  0
    5.9215  -25.7372   -7.4006 H   0  0  0  0  0  0  0  0  0  0  0  0
   15.1522  -27.1223  -12.9411 H   0  0  0  0  0  0  0  0  0  0  0  0
    8.7079  -25.2546  -12.6816 H   0  0  0  0  0  0  0  0  0  0  0  0
  1  2  2  0  0  0  0
  1  7  1  0  0  0  0
  2  8  1  0  0  0  0
  3  5  1  0  0  0  0
  3  8  2  0  0  0  0
  4  6  2  0  0  0  0
  4 16  1  0  0  0  0
  5  6  1  0  0  0  0
  5  7  2  0  0  0  0
  6 11  1  0  0  0  0
  7 16  1  0  0  0  0
  8 20  1  0  0  0  0
  9 12  1  0  0  0  0
  9 13  1  0  0  0  0
  9 14  2  0  0  0  0
 10 11  2  0  0  0  0
 10 12  1  0  0  0  0
 11 19  1  0  0  0  0
 12 18  2  0  0  0  0
 13 15  2  0  0  0  0
 14 17  1  0  0  0  0
 15 17  1  0  0  0  0
  1 21  1  0  0  0  0
  2 22  1  0  0  0  0
  3 23  1  0  0  0  0
  4 24  1  0  0  0  0
 10 25  1  0  0  0  0
 16 26  1  0  0  0  0
 17 27  1  0  0  0  0
 19 28  1  0  0  0  0
M  END
> <Hybrid2>
-5.784641265869141

> <Hybrid2>
-5.784641

$$$$
CHEMBL35109
  -OEChem-02152218483D

 28 30  0     0  0  0  0  0  0999 V2000
    5.7547  -28.5884   -7.5934 C   0  0  0  0  0  0  0  0  0  0  0  0
    6.0329  -29.9162   -7.9304 C   0  0  0  0  0  0  0  0  0  0  0  0
    7.8070  -29.2230   -9.4368 C   0  0  0  0  0  0  0  0  0  0  0  0
    7.4285  -25.6344   -8.8540 C   0  0  0  0  0  0  0  0  0  0  0  0
    7.5447  -27.8770   -9.1126 C   0  0  0  0  0  0  0  0  0  0  0  0
    8.1049  -26.6328   -9.5164 C   0  0  0  0  0  0  0  0  0  0  0  0
    6.5267  -27.5914   -8.2003 C   0  0  0  0  0  0  0  0  0  0  0  0
    7.0427  -30.2309   -8.8376 C   0  0  0  0  0  0  0  0  0  0  0  0
   12.8964  -27.2777  -10.7992 C   0  0  0  0  0  0  0  0  0  0  0  0
   10.4380  -26.9088  -10.2565 C   0  0  0  0  0  0  0  0  0  0  0  0
    9.1615  -26.4111  -10.4267 C   0  0  0  0  0  0  0  0  0  0  0  0
   11.5904  -26.6853  -11.1769 C   0  0  0  0  0  0  0  0  0  0  0  0
   13.0910  -28.0077   -9.6645 N   0  0  0  0  0  0  0  0  0  0  0  0
   13.9912  -27.1364  -11.5509 N   0  0  0  0  0  0  0  0  0  0  0  0
   14.3703  -28.3611   -9.6720 N   0  0  0  0  0  0  0  0  0  0  0  0
    6.4788  -26.2225   -8.0624 N   0  0  0  0  0  0  0  0  0  0  0  0
   14.8604  -27.8264  -10.7991 N   0  0  0  0  0  0  0  0  0  0  0  0
   11.5014  -26.0162  -12.1996 O   0  0  0  0  0  0  0  0  0  0  0  0
    8.8556  -25.6236  -11.5506 O   0  0  0  0  0  0  0  0  0  0  0  0
    7.3588  -31.8791   -9.2276 Cl  0  0  0  0  0  0  0  0  0  0  0  0
    4.9683  -28.3442   -6.8871 H   0  0  0  0  0  0  0  0  0  0  0  0
    5.4430  -30.7046   -7.4677 H   0  0  0  0  0  0  0  0  0  0  0  0
    8.5937  -29.4709  -10.1447 H   0  0  0  0  0  0  0  0  0  0  0  0
    7.5329  -24.5580   -8.8713 H   0  0  0  0  0  0  0  0  0  0  0  0
   10.6356  -27.4956   -9.3639 H   0  0  0  0  0  0  0  0  0  0  0  0
    5.8357  -25.7238   -7.4631 H   0  0  0  0  0  0  0  0  0  0  0  0
   15.8324  -27.9373  -11.0670 H   0  0  0  0  0  0  0  0  0  0  0  0
    9.6415  -25.5457  -12.0859 H   0  0  0  0  0  0  0  0  0  0  0  0
  1  2  2  0  0  0  0
  1  7  1  0  0  0  0
  2  8  1  0  0  0  0
  3  5  1  0  0  0  0
  3  8  2  0  0  0  0
  4  6  2  0  0  0  0
  4 16  1  0  0  0  0
  5  6  1  0  0  0  0
  5  7  2  0  0  0  0
  6 11  1  0  0  0  0
  7 16  1  0  0  0  0
  8 20  1  0  0  0  0
  9 12  1  0  0  0  0
  9 13  1  0  0  0  0
  9 14  2  0  0  0  0
 10 11  2  0  0  0  0
 10 12  1  0  0  0  0
 11 19  1  0  0  0  0
 12 18  2  0  0  0  0
 13 15  2  0  0  0  0
 14 17  1  0  0  0  0
 15 17  1  0  0  0  0
  1 21  1  0  0  0  0
  2 22  1  0  0  0  0
  3 23  1  0  0  0  0
  4 24  1  0  0  0  0
 10 25  1  0  0  0  0
 16 26  1  0  0  0  0
 17 27  1  0  0  0  0
 19 28  1  0  0  0  0
M  END
> <Hybrid2>
-5.784641265869141

> <Hybrid2>
-5.637142

$$$$
CHEMBL431948
  -OEChem-02152218483D

 61 63  0     1  0  0  0  0  0999 V2000
    8.6775  -20.3973  -10.4460 C   0  0  0  0  0  0  0  0  0  0  0  0
   13.5950  -24.9040  -13.1066 C   0  0  0  0  0  0  0  0  0  0  0  0
    9.8296  -20.3352  -11.2297 C   0  0  0  0  0  0  0  0  0  0  0  0
   13.2425  -24.2821  -14.3043 C   0  0  0  0  0  0  0  0  0  0  0  0
    9.5285  -22.3759   -9.3515 C   0  0  0  0  0  0  0  0  0  0  0  0
   12.1282  -26.7501  -13.6333 C   0  0  0  0  0  0  0  0  0  0  0  0
    8.5269  -21.4176   -9.5069 C   0  0  0  0  0  0  0  0  0  0  0  0
   13.0379  -26.1380  -12.7711 C   0  0  0  0  0  0  0  0  0  0  0  0
   10.8312  -21.2935  -11.0744 C   0  0  0  0  0  0  0  0  0  0  0  0
   12.3328  -24.8942  -15.1666 C   0  0  0  0  0  0  0  0  0  0  0  0
   10.6807  -22.3138  -10.1353 C   0  0  0  0  0  0  0  0  0  0  0  0
   11.7756  -26.1282  -14.8311 C   0  0  0  0  0  0  0  0  0  0  0  0
    7.3108  -21.4814   -8.6772 C   0  0  0  0  0  0  0  0  0  0  0  0
   13.4126  -26.7960  -11.5070 C   0  0  0  0  0  0  0  0  0  0  0  0
    6.4543  -22.5126   -8.6599 C   0  0  0  0  0  0  0  0  0  0  0  0
   12.5518  -27.1118  -10.5289 C   0  0  0  0  0  0  0  0  0  0  0  0
    6.7120  -23.6896   -9.5202 C   0  0  0  0  0  0  0  0  0  0  0  0
   11.1149  -26.7941  -10.6909 C   0  0  0  0  0  0  0  0  0  0  0  0
    8.6190  -27.6769  -11.5179 C   0  0  0  0  0  0  0  0  0  0  0  0
    8.3274  -28.7016   -9.2517 C   0  0  0  0  0  0  0  0  0  0  0  0
    8.6024  -26.1991   -9.5155 C   0  0  0  0  0  0  0  0  0  0  0  0
    6.8170  -28.5229   -9.1062 C   0  0  2  0  0  0  0  0  0  0  0  0
    7.0914  -26.0155   -9.3736 C   0  0  1  0  0  0  0  0  0  0  0  0
    6.4532  -27.1417   -8.5583 C   0  0  1  0  0  0  0  0  0  0  0  0
    8.9852  -27.5776  -10.0442 C   0  0  2  0  0  0  0  0  0  0  0  0
    6.7969  -23.6719  -10.7379 O   0  0  0  0  0  0  0  0  0  0  0  0
   10.6642  -25.8597  -11.3343 O   0  0  0  0  0  0  0  0  0  0  0  0
    8.0338  -26.8140  -12.1553 O   0  0  0  0  0  0  0  0  0  0  0  0
   11.9515  -21.2216  -11.8460 O   0  0  0  0  0  0  0  0  0  0  0  0
   11.9968  -24.2763  -16.3331 O   0  0  0  0  0  0  0  0  0  0  0  0
   11.6521  -23.2556   -9.9758 O   0  0  0  0  0  0  0  0  0  0  0  0
   10.8854  -26.7346  -15.6652 O   0  0  0  0  0  0  0  0  0  0  0  0
    9.0293  -28.8610  -12.0344 O   0  0  0  0  0  0  0  0  0  0  0  0
    6.3392  -29.5289   -8.2131 O   0  0  0  0  0  0  0  0  0  0  0  0
    5.0307  -27.0065   -8.6199 O   0  0  0  0  0  0  0  0  0  0  0  0
    6.8360  -24.7778   -8.7099 O   0  0  0  0  0  0  0  0  0  0  0  0
   10.4004  -27.7265   -9.9990 O   0  0  0  0  0  0  0  0  0  0  0  0
    7.9058  -19.6426  -10.5776 H   0  0  0  0  0  0  0  0  0  0  0  0
   14.3063  -24.4153  -12.4451 H   0  0  0  0  0  0  0  0  0  0  0  0
    9.9406  -19.5379  -11.9596 H   0  0  0  0  0  0  0  0  0  0  0  0
   13.6800  -23.3208  -14.5596 H   0  0  0  0  0  0  0  0  0  0  0  0
    9.4195  -23.1748   -8.6212 H   0  0  0  0  0  0  0  0  0  0  0  0
   11.6892  -27.7126  -13.3798 H   0  0  0  0  0  0  0  0  0  0  0  0
    7.1430  -20.6205   -8.0339 H   0  0  0  0  0  0  0  0  0  0  0  0
   14.4671  -27.0435  -11.4081 H   0  0  0  0  0  0  0  0  0  0  0  0
    5.5621  -22.5205   -8.0433 H   0  0  0  0  0  0  0  0  0  0  0  0
   12.8654  -27.5871   -9.6059 H   0  0  0  0  0  0  0  0  0  0  0  0
    8.7846  -28.7667   -8.2540 H   0  0  0  0  0  0  0  0  0  0  0  0
    8.5399  -29.6790   -9.7053 H   0  0  0  0  0  0  0  0  0  0  0  0
    9.0112  -25.4053  -10.1554 H   0  0  0  0  0  0  0  0  0  0  0  0
    9.0841  -26.0303   -8.5419 H   0  0  0  0  0  0  0  0  0  0  0  0
    6.3232  -28.6927  -10.0700 H   0  0  0  0  0  0  0  0  0  0  0  0
    6.6190  -25.9525  -10.3613 H   0  0  0  0  0  0  0  0  0  0  0  0
    6.7275  -27.0636   -7.4984 H   0  0  0  0  0  0  0  0  0  0  0  0
   11.8989  -20.4588  -12.4431 H   0  0  0  0  0  0  0  0  0  0  0  0
   12.4692  -23.4328  -16.4139 H   0  0  0  0  0  0  0  0  0  0  0  0
   11.3943  -23.8898   -9.2885 H   0  0  0  0  0  0  0  0  0  0  0  0
   10.5942  -27.5794  -15.2876 H   0  0  0  0  0  0  0  0  0  0  0  0
    8.8005  -28.9452  -12.9846 H   0  0  0  0  0  0  0  0  0  0  0  0
    6.5613  -30.3817   -8.6165 H   0  0  0  0  0  0  0  0  0  0  0  0
    4.7897  -27.0977   -9.5533 H   0  0  0  0  0  0  0  0  0  0  0  0
  1  3  2  0  0  0  0
  1  7  1  0  0  0  0
  2  4  2  0  0  0  0
  2  8  1  0  0  0  0
  3  9  1  0  0  0  0
  4 10  1  0  0  0  0
  5  7  2  0  0  0  0
  5 11  1  0  0  0  0
  6  8  2  0  0  0  0
  6 12  1  0  0  0  0
  7 13  1  0  0  0  0
  8 14  1  0  0  0  0
  9 11  2  0  0  0  0
  9 29  1  0  0  0  0
 10 12  2  0  0  0  0
 10 30  1  0  0  0  0
 11 31  1  0  0  0  0
 12 32  1  0  0  0  0
 13 15  2  0  0  0  0
 14 16  2  0  0  0  0
 15 17  1  0  0  0  0
 16 18  1  0  0  0  0
 17 26  2  0  0  0  0
 17 36  1  0  0  0  0
 18 27  2  0  0  0  0
 18 37  1  0  0  0  0
 19 25  1  0  0  0  0
 19 28  2  0  0  0  0
 19 33  1  0  0  0  0
 20 22  1  0  0  0  0
 20 25  1  0  0  0  0
 21 23  1  0  0  0  0
 21 25  1  0  0  0  0
 22 24  1  0  0  0  0
 22 34  1  0  0  0  0
 23 24  1  0  0  0  0
 23 36  1  0  0  0  0
 24 35  1  0  0  0  0
 25 37  1  0  0  0  0
  1 38  1  0  0  0  0
  2 39  1  0  0  0  0
  3 40  1  0  0  0  0
  4 41  1  0  0  0  0
  5 42  1  0  0  0  0
  6 43  1  0  0  0  0
 13 44  1  0  0  0  0
 14 45  1  0  0  0  0
 15 46  1  0  0  0  0
 16 47  1  0  0  0  0
 20 48  1  0  0  0  0
 20 49  1  0  0  0  0
 21 50  1  0  0  0  0
 21 51  1  0  0  0  0
 22 52  1  0  0  0  0
 23 53  1  0  0  0  0
 24 54  1  0  0  0  0
 29 55  1  0  0  0  0
 30 56  1  0  0  0  0
 31 57  1  0  0  0  0
 32 58  1  0  0  0  0
 33 59  1  0  0  0  0
 34 60  1  0  0  0  0
 35 61  1  0  0  0  0
M  END
> <Hybrid2>
-2.7357730865478516

> <Hybrid2>
-2.735773

$$$$
CHEMBL431948
  -OEChem-02152218483D

 61 63  0     1  0  0  0  0  0999 V2000
    7.8974  -21.2287  -10.1937 C   0  0  0  0  0  0  0  0  0  0  0  0
   13.2625  -25.6518  -11.9888 C   0  0  0  0  0  0  0  0  0  0  0  0
    9.1506  -21.1511  -10.8010 C   0  0  0  0  0  0  0  0  0  0  0  0
   13.0753  -25.0657  -13.2406 C   0  0  0  0  0  0  0  0  0  0  0  0
    8.6260  -23.1589   -8.9365 C   0  0  0  0  0  0  0  0  0  0  0  0
   11.9351  -27.5490  -12.6784 C   0  0  0  0  0  0  0  0  0  0  0  0
    7.6351  -22.2325   -9.2613 C   0  0  0  0  0  0  0  0  0  0  0  0
   12.6925  -26.8935  -11.7077 C   0  0  0  0  0  0  0  0  0  0  0  0
   10.1416  -22.0774  -10.4762 C   0  0  0  0  0  0  0  0  0  0  0  0
   12.3179  -25.7213  -14.2113 C   0  0  0  0  0  0  0  0  0  0  0  0
    9.8793  -23.0813   -9.5439 C   0  0  0  0  0  0  0  0  0  0  0  0
   11.7478  -26.9629  -13.9302 C   0  0  0  0  0  0  0  0  0  0  0  0
    6.3119  -22.3126   -8.6178 C   0  0  0  0  0  0  0  0  0  0  0  0
   12.8927  -27.5136  -10.3861 C   0  0  0  0  0  0  0  0  0  0  0  0
    5.4877  -23.3667   -8.7004 C   0  0  0  0  0  0  0  0  0  0  0  0
   11.9052  -27.8323   -9.5372 C   0  0  0  0  0  0  0  0  0  0  0  0
    5.8983  -24.5542   -9.4836 C   0  0  0  0  0  0  0  0  0  0  0  0
   10.5005  -27.5585   -9.9164 C   0  0  0  0  0  0  0  0  0  0  0  0
    8.1763  -28.5283  -11.0784 C   0  0  0  0  0  0  0  0  0  0  0  0
    7.5790  -29.5121   -8.8544 C   0  0  0  0  0  0  0  0  0  0  0  0
    7.8284  -27.0091   -9.1381 C   0  0  0  0  0  0  0  0  0  0  0  0
    6.0597  -29.3727   -8.9368 C   0  0  2  0  0  0  0  0  0  0  0  0
    6.3089  -26.8649   -9.2242 C   0  0  1  0  0  0  0  0  0  0  0  0
    5.5853  -27.9909   -8.4833 C   0  0  1  0  0  0  0  0  0  0  0  0
    8.3186  -28.3874   -9.5698 C   0  0  2  0  0  0  0  0  0  0  0  0
    6.1613  -24.5602  -10.6757 O   0  0  0  0  0  0  0  0  0  0  0  0
   10.1268  -26.6510  -10.6425 O   0  0  0  0  0  0  0  0  0  0  0  0
    7.6704  -27.6959  -11.8164 O   0  0  0  0  0  0  0  0  0  0  0  0
   11.3613  -21.9907  -11.0766 O   0  0  0  0  0  0  0  0  0  0  0  0
   12.1426  -25.1381  -15.4298 O   0  0  0  0  0  0  0  0  0  0  0  0
   10.8394  -23.9919   -9.2198 O   0  0  0  0  0  0  0  0  0  0  0  0
   11.0055  -27.6117  -14.8704 O   0  0  0  0  0  0  0  0  0  0  0  0
    8.6871  -29.7112  -11.4990 O   0  0  0  0  0  0  0  0  0  0  0  0
    5.4802  -30.3724   -8.0984 O   0  0  0  0  0  0  0  0  0  0  0  0
    4.1845  -27.8969   -8.7564 O   0  0  0  0  0  0  0  0  0  0  0  0
    5.9281  -25.6209   -8.6366 O   0  0  0  0  0  0  0  0  0  0  0  0
    9.7149  -28.4955   -9.3137 O   0  0  0  0  0  0  0  0  0  0  0  0
    7.1353  -20.4989  -10.4561 H   0  0  0  0  0  0  0  0  0  0  0  0
   13.8563  -25.1293  -11.2426 H   0  0  0  0  0  0  0  0  0  0  0  0
    9.3483  -20.3668  -11.5266 H   0  0  0  0  0  0  0  0  0  0  0  0
   13.5219  -24.0982  -13.4531 H   0  0  0  0  0  0  0  0  0  0  0  0
    8.4302  -23.9447   -8.2102 H   0  0  0  0  0  0  0  0  0  0  0  0
   11.4873  -28.5178  -12.4678 H   0  0  0  0  0  0  0  0  0  0  0  0
    6.0299  -21.4432   -8.0281 H   0  0  0  0  0  0  0  0  0  0  0  0
   13.9270  -27.7293  -10.1272 H   0  0  0  0  0  0  0  0  0  0  0  0
    4.5149  -23.3865   -8.2215 H   0  0  0  0  0  0  0  0  0  0  0  0
   12.0908  -28.2788   -8.5665 H   0  0  0  0  0  0  0  0  0  0  0  0
    7.8855  -29.5431   -7.7991 H   0  0  0  0  0  0  0  0  0  0  0  0
    7.8799  -30.4927   -9.2471 H   0  0  0  0  0  0  0  0  0  0  0  0
    8.3074  -26.2181   -9.7308 H   0  0  0  0  0  0  0  0  0  0  0  0
    8.1570  -26.8061   -8.1088 H   0  0  0  0  0  0  0  0  0  0  0  0
    5.7177  -29.5768   -9.9581 H   0  0  0  0  0  0  0  0  0  0  0  0
    5.9859  -26.8363  -10.2718 H   0  0  0  0  0  0  0  0  0  0  0  0
    5.6984  -27.8825   -7.3970 H   0  0  0  0  0  0  0  0  0  0  0  0
   11.3786  -21.2426  -11.6940 H   0  0  0  0  0  0  0  0  0  0  0  0
   12.6008  -24.2836  -15.4616 H   0  0  0  0  0  0  0  0  0  0  0  0
   10.4988  -24.6183   -8.5620 H   0  0  0  0  0  0  0  0  0  0  0  0
   10.6827  -28.4561  -14.5185 H   0  0  0  0  0  0  0  0  0  0  0  0
    8.6030  -29.8221  -12.4701 H   0  0  0  0  0  0  0  0  0  0  0  0
    5.7803  -31.2270   -8.4432 H   0  0  0  0  0  0  0  0  0  0  0  0
    4.0861  -28.0147   -9.7125 H   0  0  0  0  0  0  0  0  0  0  0  0
  1  3  2  0  0  0  0
  1  7  1  0  0  0  0
  2  4  2  0  0  0  0
  2  8  1  0  0  0  0
  3  9  1  0  0  0  0
  4 10  1  0  0  0  0
  5  7  2  0  0  0  0
  5 11  1  0  0  0  0
  6  8  2  0  0  0  0
  6 12  1  0  0  0  0
  7 13  1  0  0  0  0
  8 14  1  0  0  0  0
  9 11  2  0  0  0  0
  9 29  1  0  0  0  0
 10 12  2  0  0  0  0
 10 30  1  0  0  0  0
 11 31  1  0  0  0  0
 12 32  1  0  0  0  0
 13 15  2  0  0  0  0
 14 16  2  0  0  0  0
 15 17  1  0  0  0  0
 16 18  1  0  0  0  0
 17 26  2  0  0  0  0
 17 36  1  0  0  0  0
 18 27  2  0  0  0  0
 18 37  1  0  0  0  0
 19 25  1  0  0  0  0
 19 28  2  0  0  0  0
 19 33  1  0  0  0  0
 20 22  1  0  0  0  0
 20 25  1  0  0  0  0
 21 23  1  0  0  0  0
 21 25  1  0  0  0  0
 22 24  1  0  0  0  0
 22 34  1  0  0  0  0
 23 24  1  0  0  0  0
 23 36  1  0  0  0  0
 24 35  1  0  0  0  0
 25 37  1  0  0  0  0
  1 38  1  0  0  0  0
  2 39  1  0  0  0  0
  3 40  1  0  0  0  0
  4 41  1  0  0  0  0
  5 42  1  0  0  0  0
  6 43  1  0  0  0  0
 13 44  1  0  0  0  0
 14 45  1  0  0  0  0
 15 46  1  0  0  0  0
 16 47  1  0  0  0  0
 20 48  1  0  0  0  0
 20 49  1  0  0  0  0
 21 50  1  0  0  0  0
 21 51  1  0  0  0  0
 22 52  1  0  0  0  0
 23 53  1  0  0  0  0
 24 54  1  0  0  0  0
 29 55  1  0  0  0  0
 30 56  1  0  0  0  0
 31 57  1  0  0  0  0
 32 58  1  0  0  0  0
 33 59  1  0  0  0  0
 34 60  1  0  0  0  0
 35 61  1  0  0  0  0
M  END
> <Hybrid2>
-2.7357730865478516

> <Hybrid2>
-2.022323

$$$$
CHEMBL36303
  -OEChem-02152218483D

 32 33  0     0  0  0  0  0  0999 V2000
    5.1500  -24.9756  -10.4422 C   0  0  0  0  0  0  0  0  0  0  0  0
   14.1684  -28.4645   -9.3192 C   0  0  0  0  0  0  0  0  0  0  0  0
    4.1146  -25.5986   -9.7456 C   0  0  0  0  0  0  0  0  0  0  0  0
   15.0806  -28.2716  -10.3566 C   0  0  0  0  0  0  0  0  0  0  0  0
    6.4490  -25.4766  -10.3559 C   0  0  0  0  0  0  0  0  0  0  0  0
   12.8500  -28.0311   -9.4602 C   0  0  0  0  0  0  0  0  0  0  0  0
    4.3780  -26.7225   -8.9626 C   0  0  0  0  0  0  0  0  0  0  0  0
   14.6746  -27.6452  -11.5349 C   0  0  0  0  0  0  0  0  0  0  0  0
    6.7125  -26.6005   -9.5729 C   0  0  0  0  0  0  0  0  0  0  0  0
   12.4440  -27.4047  -10.6385 C   0  0  0  0  0  0  0  0  0  0  0  0
    5.6770  -27.2234   -8.8762 C   0  0  0  0  0  0  0  0  0  0  0  0
   13.3563  -27.2118  -11.6759 C   0  0  0  0  0  0  0  0  0  0  0  0
    8.0756  -27.1070   -9.4966 C   0  0  0  0  0  0  0  0  0  0  0  0
   11.0349  -26.9508  -10.7675 C   0  0  0  0  0  0  0  0  0  0  0  0
    9.1022  -26.1727   -9.6344 N   0  0  0  0  0  0  0  0  0  0  0  0
   10.4130  -26.5859   -9.5888 N   0  0  0  0  0  0  0  0  0  0  0  0
    8.2908  -28.3205   -9.3311 O   0  0  0  0  0  0  0  0  0  0  0  0
   10.5055  -26.9373  -11.8760 O   0  0  0  0  0  0  0  0  0  0  0  0
    5.9141  -28.3237   -8.1075 O   0  0  0  0  0  0  0  0  0  0  0  0
   12.9781  -26.6036  -12.8356 O   0  0  0  0  0  0  0  0  0  0  0  0
    4.9445  -24.1003  -11.0519 H   0  0  0  0  0  0  0  0  0  0  0  0
   14.4849  -28.9524   -8.4017 H   0  0  0  0  0  0  0  0  0  0  0  0
    3.1036  -25.2077   -9.8127 H   0  0  0  0  0  0  0  0  0  0  0  0
   16.1070  -28.6088  -10.2459 H   0  0  0  0  0  0  0  0  0  0  0  0
    7.2480  -24.9832  -10.9035 H   0  0  0  0  0  0  0  0  0  0  0  0
   12.1477  -28.1872   -8.6453 H   0  0  0  0  0  0  0  0  0  0  0  0
    3.5668  -27.2031   -8.4225 H   0  0  0  0  0  0  0  0  0  0  0  0
   15.3903  -27.4981  -12.3392 H   0  0  0  0  0  0  0  0  0  0  0  0
    8.9497  -25.1856   -9.8098 H   0  0  0  0  0  0  0  0  0  0  0  0
   10.8354  -26.6347   -8.6681 H   0  0  0  0  0  0  0  0  0  0  0  0
    6.8546  -28.5584   -8.1406 H   0  0  0  0  0  0  0  0  0  0  0  0
   13.7296  -26.5518  -13.4465 H   0  0  0  0  0  0  0  0  0  0  0  0
  1  3  1  0  0  0  0
  1  5  2  0  0  0  0
  2  4  1  0  0  0  0
  2  6  2  0  0  0  0
  3  7  2  0  0  0  0
  4  8  2  0  0  0  0
  5  9  1  0  0  0  0
  6 10  1  0  0  0  0
  7 11  1  0  0  0  0
  8 12  1  0  0  0  0
  9 11  2  0  0  0  0
  9 13  1  0  0  0  0
 10 12  2  0  0  0  0
 10 14  1  0  0  0  0
 11 19  1  0  0  0  0
 12 20  1  0  0  0  0
 13 15  1  0  0  0  0
 13 17  2  0  0  0  0
 14 16  1  0  0  0  0
 14 18  2  0  0  0  0
 15 16  1  0  0  0  0
  1 21  1  0  0  0  0
  2 22  1  0  0  0  0
  3 23  1  0  0  0  0
  4 24  1  0  0  0  0
  5 25  1  0  0  0  0
  6 26  1  0  0  0  0
  7 27  1  0  0  0  0
  8 28  1  0  0  0  0
 15 29  1  0  0  0  0
 16 30  1  0  0  0  0
 19 31  1  0  0  0  0
 20 32  1  0  0  0  0
M  END
> <Hybrid2>
-2.9268505573272705

> <Hybrid2>
-2.926851

$$$$
CHEMBL36303
  -OEChem-02152218483D

 32 33  0     0  0  0  0  0  0999 V2000
   14.2152  -28.4526   -9.4056 C   0  0  0  0  0  0  0  0  0  0  0  0
    5.2616  -24.7323  -10.2755 C   0  0  0  0  0  0  0  0  0  0  0  0
   15.1490  -28.1526  -10.3974 C   0  0  0  0  0  0  0  0  0  0  0  0
    4.2052  -25.4171   -9.6750 C   0  0  0  0  0  0  0  0  0  0  0  0
   12.9047  -27.9881   -9.5182 C   0  0  0  0  0  0  0  0  0  0  0  0
    6.5525  -25.2583  -10.2243 C   0  0  0  0  0  0  0  0  0  0  0  0
   14.7724  -27.3882  -11.5017 C   0  0  0  0  0  0  0  0  0  0  0  0
    4.4396  -26.6279   -9.0232 C   0  0  0  0  0  0  0  0  0  0  0  0
   12.5281  -27.2237  -10.6224 C   0  0  0  0  0  0  0  0  0  0  0  0
    6.7870  -26.4691   -9.5725 C   0  0  0  0  0  0  0  0  0  0  0  0
   13.4620  -26.9237  -11.6142 C   0  0  0  0  0  0  0  0  0  0  0  0
    5.7305  -27.1539   -8.9720 C   0  0  0  0  0  0  0  0  0  0  0  0
   11.1550  -26.7487  -10.7203 C   0  0  0  0  0  0  0  0  0  0  0  0
    8.1699  -27.0112   -9.5298 C   0  0  0  0  0  0  0  0  0  0  0  0
   10.4870  -26.5053   -9.5202 N   0  0  0  0  0  0  0  0  0  0  0  0
    9.1823  -26.0710   -9.5402 N   0  0  0  0  0  0  0  0  0  0  0  0
   10.6188  -26.5894  -11.8307 O   0  0  0  0  0  0  0  0  0  0  0  0
    8.3395  -28.2277   -9.5037 O   0  0  0  0  0  0  0  0  0  0  0  0
   13.1127  -26.1798  -12.7016 O   0  0  0  0  0  0  0  0  0  0  0  0
    5.9392  -28.3391   -8.3321 O   0  0  0  0  0  0  0  0  0  0  0  0
   14.5089  -29.0480   -8.5458 H   0  0  0  0  0  0  0  0  0  0  0  0
    5.0787  -23.7894  -10.7830 H   0  0  0  0  0  0  0  0  0  0  0  0
   16.1693  -28.5141  -10.3089 H   0  0  0  0  0  0  0  0  0  0  0  0
    3.2004  -25.0068   -9.7147 H   0  0  0  0  0  0  0  0  0  0  0  0
   12.1854  -28.2285   -8.7394 H   0  0  0  0  0  0  0  0  0  0  0  0
    7.3680  -24.7162  -10.6961 H   0  0  0  0  0  0  0  0  0  0  0  0
   15.5048  -27.1582  -12.2708 H   0  0  0  0  0  0  0  0  0  0  0  0
    3.6121  -27.1563   -8.5576 H   0  0  0  0  0  0  0  0  0  0  0  0
   10.8912  -26.6665   -8.6042 H   0  0  0  0  0  0  0  0  0  0  0  0
    9.0451  -25.0681   -9.6024 H   0  0  0  0  0  0  0  0  0  0  0  0
   12.1779  -25.9272  -12.6477 H   0  0  0  0  0  0  0  0  0  0  0  0
    5.1036  -28.6782   -7.9753 H   0  0  0  0  0  0  0  0  0  0  0  0
  1  3  1  0  0  0  0
  1  5  2  0  0  0  0
  2  4  1  0  0  0  0
  2  6  2  0  0  0  0
  3  7  2  0  0  0  0
  4  8  2  0  0  0  0
  5  9  1  0  0  0  0
  6 10  1  0  0  0  0
  7 11  1  0  0  0  0
  8 12  1  0  0  0  0
  9 11  2  0  0  0  0
  9 13  1  0  0  0  0
 10 12  2  0  0  0  0
 10 14  1  0  0  0  0
 11 19  1  0  0  0  0
 12 20  1  0  0  0  0
 13 15  1  0  0  0  0
 13 17  2  0  0  0  0
 14 16  1  0  0  0  0
 14 18  2  0  0  0  0
 15 16  1  0  0  0  0
  1 21  1  0  0  0  0
  2 22  1  0  0  0  0
  3 23  1  0  0  0  0
  4 24  1  0  0  0  0
  5 25  1  0  0  0  0
  6 26  1  0  0  0  0
  7 27  1  0  0  0  0
  8 28  1  0  0  0  0
 15 29  1  0  0  0  0
 16 30  1  0  0  0  0
 19 31  1  0  0  0  0
 20 32  1  0  0  0  0
M  END
> <Hybrid2>
-2.9268505573272705

> <Hybrid2>
-2.832059

$$$$
CHEMBL129964
  -OEChem-02152218483D

 41 42  0     0  0  0  0  0  0999 V2000
    1.5779  -30.2776   -7.5254 C   0  0  0  0  0  0  0  0  0  0  0  0
   11.5872  -24.1853  -11.3024 C   0  0  0  0  0  0  0  0  0  0  0  0
    0.9375  -31.5136   -7.4367 C   0  0  0  0  0  0  0  0  0  0  0  0
   12.8971  -24.2600  -11.7758 C   0  0  0  0  0  0  0  0  0  0  0  0
    3.1766  -31.2171   -9.0741 C   0  0  0  0  0  0  0  0  0  0  0  0
   11.6754  -26.5206  -10.6897 C   0  0  0  0  0  0  0  0  0  0  0  0
    2.6975  -30.1293   -8.3442 C   0  0  0  0  0  0  0  0  0  0  0  0
   10.9763  -25.3156  -10.7593 C   0  0  0  0  0  0  0  0  0  0  0  0
    1.4167  -32.6013   -8.1667 C   0  0  0  0  0  0  0  0  0  0  0  0
   13.5962  -25.4650  -11.7062 C   0  0  0  0  0  0  0  0  0  0  0  0
    2.5363  -32.4531   -8.9854 C   0  0  0  0  0  0  0  0  0  0  0  0
   12.9853  -26.5953  -11.1631 C   0  0  0  0  0  0  0  0  0  0  0  0
    3.3723  -28.8224   -8.4398 C   0  0  0  0  0  0  0  0  0  0  0  0
    9.5931  -25.2357  -10.2567 C   0  0  0  0  0  0  0  0  0  0  0  0
    4.6350  -28.6483   -8.8658 C   0  0  0  0  0  0  0  0  0  0  0  0
    8.7848  -26.2906  -10.0762 C   0  0  0  0  0  0  0  0  0  0  0  0
    6.6191  -27.3475   -9.4207 C   0  0  0  0  0  0  0  0  0  0  0  0
    5.3505  -27.3826   -8.9772 C   0  0  0  0  0  0  0  0  0  0  0  0
    7.3984  -26.0838   -9.5709 C   0  0  0  0  0  0  0  0  0  0  0  0
    6.9481  -24.9771   -9.3042 O   0  0  0  0  0  0  0  0  0  0  0  0
    0.7823  -33.8030   -8.0712 O   0  0  0  0  0  0  0  0  0  0  0  0
   14.8749  -25.5246  -12.1720 O   0  0  0  0  0  0  0  0  0  0  0  0
    3.0135  -33.5088   -9.7021 O   0  0  0  0  0  0  0  0  0  0  0  0
   13.6584  -27.7776  -11.0910 O   0  0  0  0  0  0  0  0  0  0  0  0
    4.6715  -26.2253   -8.6450 O   0  0  0  0  0  0  0  0  0  0  0  0
    1.1922  -29.4386   -6.9513 H   0  0  0  0  0  0  0  0  0  0  0  0
   11.0553  -23.2388  -11.3623 H   0  0  0  0  0  0  0  0  0  0  0  0
    0.0660  -31.6224   -6.7969 H   0  0  0  0  0  0  0  0  0  0  0  0
   13.3670  -23.3758  -12.1979 H   0  0  0  0  0  0  0  0  0  0  0  0
    4.0488  -31.1101   -9.7155 H   0  0  0  0  0  0  0  0  0  0  0  0
   11.2069  -27.4069  -10.2673 H   0  0  0  0  0  0  0  0  0  0  0  0
    2.7627  -27.9739   -8.1409 H   0  0  0  0  0  0  0  0  0  0  0  0
    9.2354  -24.2303  -10.0469 H   0  0  0  0  0  0  0  0  0  0  0  0
    5.2157  -29.5237   -9.1537 H   0  0  0  0  0  0  0  0  0  0  0  0
    9.1024  -27.3035  -10.2974 H   0  0  0  0  0  0  0  0  0  0  0  0
    7.1274  -28.2706   -9.6882 H   0  0  0  0  0  0  0  0  0  0  0  0
    0.0280  -33.7365   -7.4647 H   0  0  0  0  0  0  0  0  0  0  0  0
   15.1476  -24.6588  -12.5144 H   0  0  0  0  0  0  0  0  0  0  0  0
    3.7914  -33.2408  -10.2159 H   0  0  0  0  0  0  0  0  0  0  0  0
   13.0961  -28.4594  -10.6910 H   0  0  0  0  0  0  0  0  0  0  0  0
    5.2498  -25.4655   -8.7603 H   0  0  0  0  0  0  0  0  0  0  0  0
  1  3  2  0  0  0  0
  1  7  1  0  0  0  0
  2  4  2  0  0  0  0
  2  8  1  0  0  0  0
  3  9  1  0  0  0  0
  4 10  1  0  0  0  0
  5  7  2  0  0  0  0
  5 11  1  0  0  0  0
  6  8  2  0  0  0  0
  6 12  1  0  0  0  0
  7 13  1  0  0  0  0
  8 14  1  0  0  0  0
  9 11  2  0  0  0  0
  9 21  1  0  0  0  0
 10 12  2  0  0  0  0
 10 22  1  0  0  0  0
 11 23  1  0  0  0  0
 12 24  1  0  0  0  0
 13 15  2  0  0  0  0
 14 16  2  0  0  0  0
 15 18  1  0  0  0  0
 16 19  1  0  0  0  0
 17 18  2  0  0  0  0
 17 19  1  0  0  0  0
 18 25  1  0  0  0  0
 19 20  2  0  0  0  0
  1 26  1  0  0  0  0
  2 27  1  0  0  0  0
  3 28  1  0  0  0  0
  4 29  1  0  0  0  0
  5 30  1  0  0  0  0
  6 31  1  0  0  0  0
 13 32  1  0  0  0  0
 14 33  1  0  0  0  0
 15 34  1  0  0  0  0
 16 35  1  0  0  0  0
 17 36  1  0  0  0  0
 21 37  1  0  0  0  0
 22 38  1  0  0  0  0
 23 39  1  0  0  0  0
 24 40  1  0  0  0  0
 25 41  1  0  0  0  0
M  END
> <Hybrid2>
-6.472107410430908

> <Hybrid2>
-6.472107

$$$$
CHEMBL129964
  -OEChem-02152218483D

 41 42  0     0  0  0  0  0  0999 V2000
   12.4089  -28.2996   -9.8007 C   0  0  0  0  0  0  0  0  0  0  0  0
    3.5118  -32.4302   -8.7042 C   0  0  0  0  0  0  0  0  0  0  0  0
   13.7766  -28.5226   -9.9593 C   0  0  0  0  0  0  0  0  0  0  0  0
    2.7267  -33.5821   -8.7516 C   0  0  0  0  0  0  0  0  0  0  0  0
   12.5051  -26.5365  -11.4498 C   0  0  0  0  0  0  0  0  0  0  0  0
    1.5463  -31.0753   -9.0761 C   0  0  0  0  0  0  0  0  0  0  0  0
   11.7731  -27.3066  -10.5460 C   0  0  0  0  0  0  0  0  0  0  0  0
    2.9216  -31.1767   -8.8663 C   0  0  0  0  0  0  0  0  0  0  0  0
   14.5086  -27.7526  -10.8631 C   0  0  0  0  0  0  0  0  0  0  0  0
    1.3514  -33.4807   -8.9614 C   0  0  0  0  0  0  0  0  0  0  0  0
   13.8728  -26.7595  -11.6084 C   0  0  0  0  0  0  0  0  0  0  0  0
    0.7612  -32.2272   -9.1236 C   0  0  0  0  0  0  0  0  0  0  0  0
   10.3272  -27.0730  -10.3801 C   0  0  0  0  0  0  0  0  0  0  0  0
    3.7510  -29.9596   -8.8134 C   0  0  0  0  0  0  0  0  0  0  0  0
    9.4680  -27.9651   -9.8585 C   0  0  0  0  0  0  0  0  0  0  0  0
    5.0791  -29.9327   -8.9979 C   0  0  0  0  0  0  0  0  0  0  0  0
    7.2828  -28.7659   -9.1371 C   0  0  0  0  0  0  0  0  0  0  0  0
    8.0324  -27.7878   -9.6746 C   0  0  0  0  0  0  0  0  0  0  0  0
    5.8134  -28.6391   -8.9098 C   0  0  0  0  0  0  0  0  0  0  0  0
    5.2559  -27.5750   -8.6742 O   0  0  0  0  0  0  0  0  0  0  0  0
   15.8437  -27.9803  -11.0085 O   0  0  0  0  0  0  0  0  0  0  0  0
    0.5960  -34.6133   -9.0057 O   0  0  0  0  0  0  0  0  0  0  0  0
   14.5781  -26.0009  -12.4932 O   0  0  0  0  0  0  0  0  0  0  0  0
   -0.5808  -32.1164   -9.3299 O   0  0  0  0  0  0  0  0  0  0  0  0
    7.4795  -26.5743  -10.0385 O   0  0  0  0  0  0  0  0  0  0  0  0
   11.8513  -28.9086   -9.0932 H   0  0  0  0  0  0  0  0  0  0  0  0
    4.5823  -32.5250   -8.5388 H   0  0  0  0  0  0  0  0  0  0  0  0
   14.2658  -29.2976   -9.3755 H   0  0  0  0  0  0  0  0  0  0  0  0
    3.1928  -34.5555   -8.6248 H   0  0  0  0  0  0  0  0  0  0  0  0
   12.0171  -25.7604  -12.0354 H   0  0  0  0  0  0  0  0  0  0  0  0
    1.0777  -30.1018   -9.2030 H   0  0  0  0  0  0  0  0  0  0  0  0
    9.9845  -26.0961  -10.7105 H   0  0  0  0  0  0  0  0  0  0  0  0
    3.2114  -29.0425   -8.5882 H   0  0  0  0  0  0  0  0  0  0  0  0
    9.8488  -28.9352   -9.5417 H   0  0  0  0  0  0  0  0  0  0  0  0
    5.6503  -30.8318   -9.2013 H   0  0  0  0  0  0  0  0  0  0  0  0
    7.7436  -29.7069   -8.8468 H   0  0  0  0  0  0  0  0  0  0  0  0
   16.1270  -28.6992  -10.4219 H   0  0  0  0  0  0  0  0  0  0  0  0
    1.1558  -35.3949   -8.8761 H   0  0  0  0  0  0  0  0  0  0  0  0
   13.9925  -25.3602  -12.9266 H   0  0  0  0  0  0  0  0  0  0  0  0
   -0.8296  -31.1834   -9.4230 H   0  0  0  0  0  0  0  0  0  0  0  0
    6.5329  -26.5852   -9.8687 H   0  0  0  0  0  0  0  0  0  0  0  0
  1  3  2  0  0  0  0
  1  7  1  0  0  0  0
  2  4  2  0  0  0  0
  2  8  1  0  0  0  0
  3  9  1  0  0  0  0
  4 10  1  0  0  0  0
  5  7  2  0  0  0  0
  5 11  1  0  0  0  0
  6  8  2  0  0  0  0
  6 12  1  0  0  0  0
  7 13  1  0  0  0  0
  8 14  1  0  0  0  0
  9 11  2  0  0  0  0
  9 21  1  0  0  0  0
 10 12  2  0  0  0  0
 10 22  1  0  0  0  0
 11 23  1  0  0  0  0
 12 24  1  0  0  0  0
 13 15  2  0  0  0  0
 14 16  2  0  0  0  0
 15 18  1  0  0  0  0
 16 19  1  0  0  0  0
 17 18  2  0  0  0  0
 17 19  1  0  0  0  0
 18 25  1  0  0  0  0
 19 20  2  0  0  0  0
  1 26  1  0  0  0  0
  2 27  1  0  0  0  0
  3 28  1  0  0  0  0
  4 29  1  0  0  0  0
  5 30  1  0  0  0  0
  6 31  1  0  0  0  0
 13 32  1  0  0  0  0
 14 33  1  0  0  0  0
 15 34  1  0  0  0  0
 16 35  1  0  0  0  0
 17 36  1  0  0  0  0
 21 37  1  0  0  0  0
 22 38  1  0  0  0  0
 23 39  1  0  0  0  0
 24 40  1  0  0  0  0
 25 41  1  0  0  0  0
M  END
> <Hybrid2>
-6.472107410430908

> <Hybrid2>
-5.887075

$$$$
CHEMBL339815
  -OEChem-02152218483D

 48 50  0     0  0  0  0  0  0999 V2000
    4.0373  -29.4291   -9.1102 C   0  0  0  0  0  0  0  0  0  0  0  0
    5.2997  -29.9781   -9.3345 C   0  0  0  0  0  0  0  0  0  0  0  0
    3.8979  -28.0538   -8.9236 C   0  0  0  0  0  0  0  0  0  0  0  0
   10.8811  -27.0343  -11.2459 C   0  0  0  0  0  0  0  0  0  0  0  0
    7.0230  -21.3649   -9.1220 C   0  0  0  0  0  0  0  0  0  0  0  0
   11.9086  -26.2921  -11.8282 C   0  0  0  0  0  0  0  0  0  0  0  0
    7.9055  -20.4424   -9.6840 C   0  0  0  0  0  0  0  0  0  0  0  0
    6.2836  -27.7766   -9.1854 C   0  0  0  0  0  0  0  0  0  0  0  0
   12.4721  -28.7371  -10.6087 C   0  0  0  0  0  0  0  0  0  0  0  0
    8.0209  -23.1244  -10.4432 C   0  0  0  0  0  0  0  0  0  0  0  0
    6.4229  -29.1519   -9.3721 C   0  0  0  0  0  0  0  0  0  0  0  0
    5.0211  -27.2275   -8.9612 C   0  0  0  0  0  0  0  0  0  0  0  0
   11.1629  -28.2568  -10.6361 C   0  0  0  0  0  0  0  0  0  0  0  0
    7.0807  -22.7060   -9.5016 C   0  0  0  0  0  0  0  0  0  0  0  0
   13.2179  -26.7725  -11.8008 C   0  0  0  0  0  0  0  0  0  0  0  0
    8.8456  -20.8609  -10.6257 C   0  0  0  0  0  0  0  0  0  0  0  0
   13.4996  -27.9950  -11.1910 C   0  0  0  0  0  0  0  0  0  0  0  0
    8.9033  -22.2019  -11.0053 C   0  0  0  0  0  0  0  0  0  0  0  0
   10.0776  -29.0392  -10.0186 C   0  0  0  0  0  0  0  0  0  0  0  0
    6.1502  -23.6808   -8.9056 C   0  0  0  0  0  0  0  0  0  0  0  0
    8.7754  -28.8879  -10.3015 C   0  0  0  0  0  0  0  0  0  0  0  0
    5.8499  -24.8721   -9.4435 C   0  0  0  0  0  0  0  0  0  0  0  0
    7.7389  -29.7252   -9.6063 C   0  0  0  0  0  0  0  0  0  0  0  0
    4.8748  -25.7938   -8.7663 C   0  0  0  0  0  0  0  0  0  0  0  0
    8.0116  -30.8715   -9.2188 O   0  0  0  0  0  0  0  0  0  0  0  0
    3.9503  -25.3363   -8.0774 O   0  0  0  0  0  0  0  0  0  0  0  0
   14.2121  -26.0381  -12.3731 O   0  0  0  0  0  0  0  0  0  0  0  0
    9.7016  -19.9500  -11.1671 O   0  0  0  0  0  0  0  0  0  0  0  0
   14.7745  -28.4742  -11.1592 O   0  0  0  0  0  0  0  0  0  0  0  0
    9.8168  -22.6215  -11.9247 O   0  0  0  0  0  0  0  0  0  0  0  0
    3.1626  -30.0726   -9.0806 H   0  0  0  0  0  0  0  0  0  0  0  0
    5.3966  -31.0512   -9.4788 H   0  0  0  0  0  0  0  0  0  0  0  0
    2.9092  -27.6367   -8.7496 H   0  0  0  0  0  0  0  0  0  0  0  0
    9.8657  -26.6464  -11.2741 H   0  0  0  0  0  0  0  0  0  0  0  0
    6.2964  -21.0241   -8.3884 H   0  0  0  0  0  0  0  0  0  0  0  0
   11.6823  -25.3407  -12.3018 H   0  0  0  0  0  0  0  0  0  0  0  0
    7.8551  -19.3992   -9.3842 H   0  0  0  0  0  0  0  0  0  0  0  0
    7.1595  -27.1324   -9.2145 H   0  0  0  0  0  0  0  0  0  0  0  0
   12.7008  -29.6893  -10.1349 H   0  0  0  0  0  0  0  0  0  0  0  0
    8.0731  -24.1684  -10.7446 H   0  0  0  0  0  0  0  0  0  0  0  0
   10.3970  -29.7678   -9.2770 H   0  0  0  0  0  0  0  0  0  0  0  0
    5.6853  -23.3664   -7.9740 H   0  0  0  0  0  0  0  0  0  0  0  0
    8.4277  -28.1505  -11.0153 H   0  0  0  0  0  0  0  0  0  0  0  0
    6.2769  -25.1980  -10.3846 H   0  0  0  0  0  0  0  0  0  0  0  0
   13.8506  -25.2206  -12.7502 H   0  0  0  0  0  0  0  0  0  0  0  0
    9.5304  -19.0690  -10.7988 H   0  0  0  0  0  0  0  0  0  0  0  0
   14.7996  -29.3298  -10.7027 H   0  0  0  0  0  0  0  0  0  0  0  0
    9.7251  -23.5752  -12.0771 H   0  0  0  0  0  0  0  0  0  0  0  0
  1  2  2  0  0  0  0
  1  3  1  0  0  0  0
  2 11  1  0  0  0  0
  3 12  2  0  0  0  0
  4  6  2  0  0  0  0
  4 13  1  0  0  0  0
  5  7  2  0  0  0  0
  5 14  1  0  0  0  0
  6 15  1  0  0  0  0
  7 16  1  0  0  0  0
  8 11  2  0  0  0  0
  8 12  1  0  0  0  0
  9 13  2  0  0  0  0
  9 17  1  0  0  0  0
 10 14  2  0  0  0  0
 10 18  1  0  0  0  0
 11 23  1  0  0  0  0
 12 24  1  0  0  0  0
 13 19  1  0  0  0  0
 14 20  1  0  0  0  0
 15 17  2  0  0  0  0
 15 27  1  0  0  0  0
 16 18  2  0  0  0  0
 16 28  1  0  0  0  0
 17 29  1  0  0  0  0
 18 30  1  0  0  0  0
 19 21  2  0  0  0  0
 20 22  2  0  0  0  0
 21 23  1  0  0  0  0
 22 24  1  0  0  0  0
 23 25  2  0  0  0  0
 24 26  2  0  0  0  0
  1 31  1  0  0  0  0
  2 32  1  0  0  0  0
  3 33  1  0  0  0  0
  4 34  1  0  0  0  0
  5 35  1  0  0  0  0
  6 36  1  0  0  0  0
  7 37  1  0  0  0  0
  8 38  1  0  0  0  0
  9 39  1  0  0  0  0
 10 40  1  0  0  0  0
 19 41  1  0  0  0  0
 20 42  1  0  0  0  0
 21 43  1  0  0  0  0
 22 44  1  0  0  0  0
 27 45  1  0  0  0  0
 28 46  1  0  0  0  0
 29 47  1  0  0  0  0
 30 48  1  0  0  0  0
M  END
> <Hybrid2>
-4.68165922164917

> <Hybrid2>
-4.681659

$$$$
CHEMBL339815
  -OEChem-02152218483D

 48 50  0     0  0  0  0  0  0999 V2000
    4.0522  -29.9633   -9.1925 C   0  0  0  0  0  0  0  0  0  0  0  0
    5.3564  -30.4179   -9.3869 C   0  0  0  0  0  0  0  0  0  0  0  0
    3.8047  -28.5991   -9.0392 C   0  0  0  0  0  0  0  0  0  0  0  0
   10.7238  -27.0942  -11.2885 C   0  0  0  0  0  0  0  0  0  0  0  0
    6.4091  -21.6949   -9.3476 C   0  0  0  0  0  0  0  0  0  0  0  0
   11.7000  -26.2878  -11.8735 C   0  0  0  0  0  0  0  0  0  0  0  0
    7.2266  -20.7194   -9.9184 C   0  0  0  0  0  0  0  0  0  0  0  0
    6.1658  -28.1443   -9.2747 C   0  0  0  0  0  0  0  0  0  0  0  0
   12.4310  -28.6550  -10.5909 C   0  0  0  0  0  0  0  0  0  0  0  0
    7.5594  -23.4004  -10.6145 C   0  0  0  0  0  0  0  0  0  0  0  0
    6.4132  -29.5085   -9.4280 C   0  0  0  0  0  0  0  0  0  0  0  0
    4.8615  -27.6896   -9.0803 C   0  0  0  0  0  0  0  0  0  0  0  0
   11.0893  -28.2778  -10.6472 C   0  0  0  0  0  0  0  0  0  0  0  0
    6.5756  -23.0354   -9.6956 C   0  0  0  0  0  0  0  0  0  0  0  0
   13.0418  -26.6650  -11.8172 C   0  0  0  0  0  0  0  0  0  0  0  0
    8.2105  -21.0844  -10.8373 C   0  0  0  0  0  0  0  0  0  0  0  0
   13.4073  -27.8486  -11.1759 C   0  0  0  0  0  0  0  0  0  0  0  0
    8.3769  -22.4249  -11.1854 C   0  0  0  0  0  0  0  0  0  0  0  0
   10.0580  -29.1281  -10.0269 C   0  0  0  0  0  0  0  0  0  0  0  0
    5.7136  -24.0659   -9.0903 C   0  0  0  0  0  0  0  0  0  0  0  0
    8.7525  -29.0840  -10.3309 C   0  0  0  0  0  0  0  0  0  0  0  0
    5.5141  -25.2883   -9.6049 C   0  0  0  0  0  0  0  0  0  0  0  0
    7.7728  -29.9835   -9.6310 C   0  0  0  0  0  0  0  0  0  0  0  0
    4.6025  -26.2675   -8.9203 C   0  0  0  0  0  0  0  0  0  0  0  0
    8.1268  -31.0966   -9.2138 O   0  0  0  0  0  0  0  0  0  0  0  0
    3.6351  -25.8679   -8.2547 O   0  0  0  0  0  0  0  0  0  0  0  0
   13.9854  -25.8686  -12.3926 O   0  0  0  0  0  0  0  0  0  0  0  0
    9.0021  -20.1221  -11.3876 O   0  0  0  0  0  0  0  0  0  0  0  0
   14.7145  -28.2271  -11.1158 O   0  0  0  0  0  0  0  0  0  0  0  0
    9.3340  -22.7926  -12.0824 O   0  0  0  0  0  0  0  0  0  0  0  0
    3.2292  -30.6716   -9.1601 H   0  0  0  0  0  0  0  0  0  0  0  0
    5.5377  -31.4833   -9.5053 H   0  0  0  0  0  0  0  0  0  0  0  0
    2.7843  -28.2559   -8.8884 H   0  0  0  0  0  0  0  0  0  0  0  0
    9.6821  -26.7866  -11.3394 H   0  0  0  0  0  0  0  0  0  0  0  0
    5.6472  -21.3953   -8.6320 H   0  0  0  0  0  0  0  0  0  0  0  0
   11.4086  -25.3672  -12.3717 H   0  0  0  0  0  0  0  0  0  0  0  0
    7.0915  -19.6769   -9.6431 H   0  0  0  0  0  0  0  0  0  0  0  0
    6.9899  -27.4352   -9.3065 H   0  0  0  0  0  0  0  0  0  0  0  0
   12.7249  -29.5761  -10.0924 H   0  0  0  0  0  0  0  0  0  0  0  0
    7.6964  -24.4435  -10.8912 H   0  0  0  0  0  0  0  0  0  0  0  0
   10.4210  -29.8136   -9.2645 H   0  0  0  0  0  0  0  0  0  0  0  0
    5.2117  -23.7683   -8.1726 H   0  0  0  0  0  0  0  0  0  0  0  0
    8.3602  -28.3912  -11.0660 H   0  0  0  0  0  0  0  0  0  0  0  0
    5.9794  -25.6006  -10.5324 H   0  0  0  0  0  0  0  0  0  0  0  0
   13.5679  -25.0899  -12.7931 H   0  0  0  0  0  0  0  0  0  0  0  0
    8.7581  -19.2491  -11.0419 H   0  0  0  0  0  0  0  0  0  0  0  0
   14.7983  -29.0681  -10.6395 H   0  0  0  0  0  0  0  0  0  0  0  0
    9.3183  -23.7536  -12.2142 H   0  0  0  0  0  0  0  0  0  0  0  0
  1  2  2  0  0  0  0
  1  3  1  0  0  0  0
  2 11  1  0  0  0  0
  3 12  2  0  0  0  0
  4  6  2  0  0  0  0
  4 13  1  0  0  0  0
  5  7  2  0  0  0  0
  5 14  1  0  0  0  0
  6 15  1  0  0  0  0
  7 16  1  0  0  0  0
  8 11  2  0  0  0  0
  8 12  1  0  0  0  0
  9 13  2  0  0  0  0
  9 17  1  0  0  0  0
 10 14  2  0  0  0  0
 10 18  1  0  0  0  0
 11 23  1  0  0  0  0
 12 24  1  0  0  0  0
 13 19  1  0  0  0  0
 14 20  1  0  0  0  0
 15 17  2  0  0  0  0
 15 27  1  0  0  0  0
 16 18  2  0  0  0  0
 16 28  1  0  0  0  0
 17 29  1  0  0  0  0
 18 30  1  0  0  0  0
 19 21  2  0  0  0  0
 20 22  2  0  0  0  0
 21 23  1  0  0  0  0
 22 24  1  0  0  0  0
 23 25  2  0  0  0  0
 24 26  2  0  0  0  0
  1 31  1  0  0  0  0
  2 32  1  0  0  0  0
  3 33  1  0  0  0  0
  4 34  1  0  0  0  0
  5 35  1  0  0  0  0
  6 36  1  0  0  0  0
  7 37  1  0  0  0  0
  8 38  1  0  0  0  0
  9 39  1  0  0  0  0
 10 40  1  0  0  0  0
 19 41  1  0  0  0  0
 20 42  1  0  0  0  0
 21 43  1  0  0  0  0
 22 44  1  0  0  0  0
 27 45  1  0  0  0  0
 28 46  1  0  0  0  0
 29 47  1  0  0  0  0
 30 48  1  0  0  0  0
M  END
> <Hybrid2>
-4.68165922164917

> <Hybrid2>
-4.451182

$$$$
CHEMBL611459
  -OEChem-02152218483D

 21 21  0     0  0  0  0  0  0999 V2000
    6.5687  -28.8763   -8.6793 C   0  0  0  0  0  0  0  0  0  0  0  0
    7.2178  -27.6156   -8.9367 C   0  0  0  0  0  0  0  0  0  0  0  0
    7.2894  -29.8729   -9.2148 C   0  0  0  0  0  0  0  0  0  0  0  0
    8.3390  -27.8435   -9.6320 C   0  0  0  0  0  0  0  0  0  0  0  0
   10.6923  -27.2324  -10.1852 C   0  0  0  0  0  0  0  0  0  0  0  0
    9.2721  -26.7948  -10.0818 C   0  0  0  0  0  0  0  0  0  0  0  0
   11.5493  -26.6994  -11.0714 C   0  0  0  0  0  0  0  0  0  0  0  0
   12.9620  -27.1513  -11.1569 C   0  0  0  0  0  0  0  0  0  0  0  0
    8.5099  -29.3080   -9.8869 C   0  0  0  0  0  0  0  0  0  0  0  0
    8.8717  -25.6676  -10.3397 O   0  0  0  0  0  0  0  0  0  0  0  0
   13.5849  -27.5785  -10.1949 O   0  0  0  0  0  0  0  0  0  0  0  0
   11.1681  -25.7043  -11.9504 O   0  0  0  0  0  0  0  0  0  0  0  0
   13.4819  -27.0426  -12.3996 O   0  0  0  0  0  0  0  0  0  0  0  0
    5.6432  -28.9821   -8.1367 H   0  0  0  0  0  0  0  0  0  0  0  0
    6.8379  -26.6609   -8.6098 H   0  0  0  0  0  0  0  0  0  0  0  0
    7.0361  -30.9214   -9.1714 H   0  0  0  0  0  0  0  0  0  0  0  0
   11.0027  -28.0140   -9.4987 H   0  0  0  0  0  0  0  0  0  0  0  0
    9.4244  -29.6933   -9.4259 H   0  0  0  0  0  0  0  0  0  0  0  0
    8.5079  -29.5341  -10.9574 H   0  0  0  0  0  0  0  0  0  0  0  0
   10.2412  -25.4863  -11.8127 H   0  0  0  0  0  0  0  0  0  0  0  0
   14.4141  -27.3461  -12.4364 H   0  0  0  0  0  0  0  0  0  0  0  0
  1  2  1  0  0  0  0
  1  3  2  0  0  0  0
  2  4  2  0  0  0  0
  3  9  1  0  0  0  0
  4  6  1  0  0  0  0
  4  9  1  0  0  0  0
  5  6  1  0  0  0  0
  5  7  2  0  0  0  0
  6 10  2  0  0  0  0
  7  8  1  0  0  0  0
  7 12  1  0  0  0  0
  8 11  2  0  0  0  0
  8 13  1  0  0  0  0
  1 14  1  0  0  0  0
  2 15  1  0  0  0  0
  3 16  1  0  0  0  0
  5 17  1  0  0  0  0
  9 18  1  0  0  0  0
  9 19  1  0  0  0  0
 12 20  1  0  0  0  0
 13 21  1  0  0  0  0
M  END
> <Hybrid2>
-4.228153705596924

> <Hybrid2>
-4.228154

$$$$
CHEMBL611459
  -OEChem-02152218483D

 21 21  0     0  0  0  0  0  0999 V2000
    6.0426  -28.7298   -8.2103 C   0  0  0  0  0  0  0  0  0  0  0  0
    6.4414  -27.3706   -8.4758 C   0  0  0  0  0  0  0  0  0  0  0  0
    6.9033  -29.5756   -8.7964 C   0  0  0  0  0  0  0  0  0  0  0  0
    7.5497  -27.3867   -9.2268 C   0  0  0  0  0  0  0  0  0  0  0  0
    9.7249  -26.3569   -9.8789 C   0  0  0  0  0  0  0  0  0  0  0  0
    8.2561  -26.1832   -9.7015 C   0  0  0  0  0  0  0  0  0  0  0  0
   10.3347  -26.1835  -11.0630 C   0  0  0  0  0  0  0  0  0  0  0  0
   11.8015  -26.3620  -11.2169 C   0  0  0  0  0  0  0  0  0  0  0  0
    7.9679  -28.7942   -9.5150 C   0  0  0  0  0  0  0  0  0  0  0  0
    7.6477  -25.1443   -9.9205 O   0  0  0  0  0  0  0  0  0  0  0  0
   12.5462  -25.4681  -11.5941 O   0  0  0  0  0  0  0  0  0  0  0  0
    9.6357  -25.8302  -12.2010 O   0  0  0  0  0  0  0  0  0  0  0  0
   12.2232  -27.6056  -10.8977 O   0  0  0  0  0  0  0  0  0  0  0  0
    5.1790  -29.0053   -7.6269 H   0  0  0  0  0  0  0  0  0  0  0  0
    5.9129  -26.5029   -8.1148 H   0  0  0  0  0  0  0  0  0  0  0  0
    6.8447  -30.6529   -8.7595 H   0  0  0  0  0  0  0  0  0  0  0  0
   10.2841  -26.6343   -8.9907 H   0  0  0  0  0  0  0  0  0  0  0  0
    8.9583  -29.0125   -9.1042 H   0  0  0  0  0  0  0  0  0  0  0  0
    7.9538  -29.0075  -10.5879 H   0  0  0  0  0  0  0  0  0  0  0  0
    8.7006  -25.7403  -11.9935 H   0  0  0  0  0  0  0  0  0  0  0  0
   13.1934  -27.7041  -11.0046 H   0  0  0  0  0  0  0  0  0  0  0  0
  1  2  1  0  0  0  0
  1  3  2  0  0  0  0
  2  4  2  0  0  0  0
  3  9  1  0  0  0  0
  4  6  1  0  0  0  0
  4  9  1  0  0  0  0
  5  6  1  0  0  0  0
  5  7  2  0  0  0  0
  6 10  2  0  0  0  0
  7  8  1  0  0  0  0
  7 12  1  0  0  0  0
  8 11  2  0  0  0  0
  8 13  1  0  0  0  0
  1 14  1  0  0  0  0
  2 15  1  0  0  0  0
  3 16  1  0  0  0  0
  5 17  1  0  0  0  0
  9 18  1  0  0  0  0
  9 19  1  0  0  0  0
 12 20  1  0  0  0  0
 13 21  1  0  0  0  0
M  END
> <Hybrid2>
-4.228153705596924

> <Hybrid2>
-4.064374

$$$$
CHEMBL267578
  -OEChem-02152218483D

 55 58  0     0  0  0  0  0  0999 V2000
    7.6837  -25.8795  -12.4727 C   0  0  0  0  0  0  0  0  0  0  0  0
    9.8195  -26.5410   -8.2412 C   0  0  0  0  0  0  0  0  0  0  0  0
    8.9365  -25.7290  -13.0679 C   0  0  0  0  0  0  0  0  0  0  0  0
   11.0511  -26.3887   -8.8786 C   0  0  0  0  0  0  0  0  0  0  0  0
    9.3974  -23.8493  -11.6250 C   0  0  0  0  0  0  0  0  0  0  0  0
   10.4968  -28.1930  -10.3835 C   0  0  0  0  0  0  0  0  0  0  0  0
    6.0129  -25.1533  -10.8345 C   0  0  0  0  0  0  0  0  0  0  0  0
    7.6650  -27.6895   -8.0366 C   0  0  0  0  0  0  0  0  0  0  0  0
    7.7266  -23.1231   -9.9868 C   0  0  0  0  0  0  0  0  0  0  0  0
    8.3423  -29.3415  -10.1791 C   0  0  0  0  0  0  0  0  0  0  0  0
    7.2703  -25.0164  -11.4449 C   0  0  0  0  0  0  0  0  0  0  0  0
    8.9090  -27.5221   -8.6665 C   0  0  0  0  0  0  0  0  0  0  0  0
    8.1400  -23.9861  -11.0147 C   0  0  0  0  0  0  0  0  0  0  0  0
    9.2527  -28.3604   -9.7537 C   0  0  0  0  0  0  0  0  0  0  0  0
    9.7917  -24.7158  -12.6449 C   0  0  0  0  0  0  0  0  0  0  0  0
   11.3891  -27.2130   -9.9477 C   0  0  0  0  0  0  0  0  0  0  0  0
    5.6186  -24.2868   -9.8147 C   0  0  0  0  0  0  0  0  0  0  0  0
    6.7727  -28.6694   -8.4724 C   0  0  0  0  0  0  0  0  0  0  0  0
    6.4738  -23.2737   -9.3916 C   0  0  0  0  0  0  0  0  0  0  0  0
    7.1106  -29.4938   -9.5416 C   0  0  0  0  0  0  0  0  0  0  0  0
   11.0978  -24.5619  -13.2660 C   0  0  0  0  0  0  0  0  0  0  0  0
   12.7006  -27.0477  -10.6257 C   0  0  0  0  0  0  0  0  0  0  0  0
   14.1056  -26.0229  -13.4594 C   0  0  0  0  0  0  0  0  0  0  0  0
   12.9794  -25.7237  -14.4466 C   0  0  0  0  0  0  0  0  0  0  0  0
   13.9568  -27.3629  -12.7420 C   0  0  0  0  0  0  0  0  0  0  0  0
   11.6786  -25.7100  -13.8170 N   0  0  0  0  0  0  0  0  0  0  0  0
   12.7542  -27.4388  -11.9586 N   0  0  0  0  0  0  0  0  0  0  0  0
   11.6648  -23.4549  -13.2774 O   0  0  0  0  0  0  0  0  0  0  0  0
   13.6536  -26.6056   -9.9893 O   0  0  0  0  0  0  0  0  0  0  0  0
    4.3928  -24.4430   -9.2407 O   0  0  0  0  0  0  0  0  0  0  0  0
    5.5727  -28.8094   -7.8424 O   0  0  0  0  0  0  0  0  0  0  0  0
    6.0997  -22.4219   -8.3964 O   0  0  0  0  0  0  0  0  0  0  0  0
    6.2472  -30.4537   -9.9761 O   0  0  0  0  0  0  0  0  0  0  0  0
    7.0319  -26.6785  -12.8193 H   0  0  0  0  0  0  0  0  0  0  0  0
    9.5765  -25.8854   -7.4079 H   0  0  0  0  0  0  0  0  0  0  0  0
    9.2337  -26.4097  -13.8615 H   0  0  0  0  0  0  0  0  0  0  0  0
   11.7388  -25.6219   -8.5310 H   0  0  0  0  0  0  0  0  0  0  0  0
   10.0752  -23.0602  -11.3027 H   0  0  0  0  0  0  0  0  0  0  0  0
   10.7726  -28.8321  -11.2210 H   0  0  0  0  0  0  0  0  0  0  0  0
    5.3324  -25.9405  -11.1544 H   0  0  0  0  0  0  0  0  0  0  0  0
    7.3860  -27.0529   -7.1988 H   0  0  0  0  0  0  0  0  0  0  0  0
    8.3836  -22.3255   -9.6441 H   0  0  0  0  0  0  0  0  0  0  0  0
    8.5912  -29.9944  -11.0139 H   0  0  0  0  0  0  0  0  0  0  0  0
   14.1430  -25.2165  -12.7167 H   0  0  0  0  0  0  0  0  0  0  0  0
   15.0650  -26.0157  -13.9911 H   0  0  0  0  0  0  0  0  0  0  0  0
   13.1234  -24.7567  -14.9382 H   0  0  0  0  0  0  0  0  0  0  0  0
   12.9488  -26.4958  -15.2219 H   0  0  0  0  0  0  0  0  0  0  0  0
   14.7943  -27.5116  -12.0532 H   0  0  0  0  0  0  0  0  0  0  0  0
   13.9485  -28.1978  -13.4494 H   0  0  0  0  0  0  0  0  0  0  0  0
   11.2011  -26.6006  -13.7246 H   0  0  0  0  0  0  0  0  0  0  0  0
   11.9342  -27.8550  -12.3963 H   0  0  0  0  0  0  0  0  0  0  0  0
    3.9251  -25.1892   -9.6473 H   0  0  0  0  0  0  0  0  0  0  0  0
    5.4942  -28.1626   -7.1238 H   0  0  0  0  0  0  0  0  0  0  0  0
    6.8051  -21.7790   -8.2227 H   0  0  0  0  0  0  0  0  0  0  0  0
    6.6322  -30.9371  -10.7239 H   0  0  0  0  0  0  0  0  0  0  0  0
  1  3  2  0  0  0  0
  1 11  1  0  0  0  0
  2  4  2  0  0  0  0
  2 12  1  0  0  0  0
  3 15  1  0  0  0  0
  4 16  1  0  0  0  0
  5 13  1  0  0  0  0
  5 15  2  0  0  0  0
  6 14  1  0  0  0  0
  6 16  2  0  0  0  0
  7 11  2  0  0  0  0
  7 17  1  0  0  0  0
  8 12  1  0  0  0  0
  8 18  2  0  0  0  0
  9 13  2  0  0  0  0
  9 19  1  0  0  0  0
 10 14  1  0  0  0  0
 10 20  2  0  0  0  0
 11 13  1  0  0  0  0
 12 14  2  0  0  0  0
 15 21  1  0  0  0  0
 16 22  1  0  0  0  0
 17 19  2  0  0  0  0
 17 30  1  0  0  0  0
 18 20  1  0  0  0  0
 18 31  1  0  0  0  0
 19 32  1  0  0  0  0
 20 33  1  0  0  0  0
 21 26  1  0  0  0  0
 21 28  2  0  0  0  0
 22 27  1  0  0  0  0
 22 29  2  0  0  0  0
 23 24  1  0  0  0  0
 23 25  1  0  0  0  0
 24 26  1  0  0  0  0
 25 27  1  0  0  0  0
  1 34  1  0  0  0  0
  2 35  1  0  0  0  0
  3 36  1  0  0  0  0
  4 37  1  0  0  0  0
  5 38  1  0  0  0  0
  6 39  1  0  0  0  0
  7 40  1  0  0  0  0
  8 41  1  0  0  0  0
  9 42  1  0  0  0  0
 10 43  1  0  0  0  0
 23 44  1  0  0  0  0
 23 45  1  0  0  0  0
 24 46  1  0  0  0  0
 24 47  1  0  0  0  0
 25 48  1  0  0  0  0
 25 49  1  0  0  0  0
 26 50  1  0  0  0  0
 27 51  1  0  0  0  0
 30 52  1  0  0  0  0
 31 53  1  0  0  0  0
 32 54  1  0  0  0  0
 33 55  1  0  0  0  0
M  END
> <Hybrid2>
-1.258130431175232

> <Hybrid2>
-1.258130

$$$$
CHEMBL267578
  -OEChem-02152218483D

 55 58  0     0  0  0  0  0  0999 V2000
    8.0191  -25.4233  -13.1312 C   0  0  0  0  0  0  0  0  0  0  0  0
    8.5091  -28.4801  -10.5889 C   0  0  0  0  0  0  0  0  0  0  0  0
    9.4005  -25.2320  -13.1706 C   0  0  0  0  0  0  0  0  0  0  0  0
    9.8861  -28.2720  -10.6716 C   0  0  0  0  0  0  0  0  0  0  0  0
    9.2441  -23.7104  -11.3030 C   0  0  0  0  0  0  0  0  0  0  0  0
    9.7879  -26.8431   -8.7283 C   0  0  0  0  0  0  0  0  0  0  0  0
    5.8391  -24.9411  -12.1224 C   0  0  0  0  0  0  0  0  0  0  0  0
    6.3652  -28.0705   -9.4759 C   0  0  0  0  0  0  0  0  0  0  0  0
    7.0641  -23.2282  -10.2941 C   0  0  0  0  0  0  0  0  0  0  0  0
    7.6441  -26.4336   -7.6151 C   0  0  0  0  0  0  0  0  0  0  0  0
    7.2307  -24.7604  -12.1766 C   0  0  0  0  0  0  0  0  0  0  0  0
    7.7521  -27.8722   -9.5742 C   0  0  0  0  0  0  0  0  0  0  0  0
    7.8524  -23.8911  -11.2488 C   0  0  0  0  0  0  0  0  0  0  0  0
    8.4011  -27.0415   -8.6299 C   0  0  0  0  0  0  0  0  0  0  0  0
   10.0118  -24.3771  -12.2583 C   0  0  0  0  0  0  0  0  0  0  0  0
   10.5243  -27.4551   -9.7430 C   0  0  0  0  0  0  0  0  0  0  0  0
    5.0714  -24.2744  -11.1671 C   0  0  0  0  0  0  0  0  0  0  0  0
    5.6288  -27.4587   -8.4611 C   0  0  0  0  0  0  0  0  0  0  0  0
    5.6827  -23.4196  -10.2548 C   0  0  0  0  0  0  0  0  0  0  0  0
    6.2670  -26.6418   -7.5326 C   0  0  0  0  0  0  0  0  0  0  0  0
   11.4523  -24.1805  -12.3005 C   0  0  0  0  0  0  0  0  0  0  0  0
   11.9910  -27.2362   -9.8323 C   0  0  0  0  0  0  0  0  0  0  0  0
   14.3400  -25.7507  -11.6570 C   0  0  0  0  0  0  0  0  0  0  0  0
   13.6637  -25.1929  -12.9076 C   0  0  0  0  0  0  0  0  0  0  0  0
   13.9591  -27.1958  -11.3427 C   0  0  0  0  0  0  0  0  0  0  0  0
   12.2215  -25.2277  -12.8208 N   0  0  0  0  0  0  0  0  0  0  0  0
   12.5516  -27.3549  -11.0988 N   0  0  0  0  0  0  0  0  0  0  0  0
   11.9588  -23.1297  -11.8690 O   0  0  0  0  0  0  0  0  0  0  0  0
   12.6241  -26.9884   -8.8094 O   0  0  0  0  0  0  0  0  0  0  0  0
    3.7231  -24.4686  -11.1380 O   0  0  0  0  0  0  0  0  0  0  0  0
    4.2845  -27.6688   -8.3901 O   0  0  0  0  0  0  0  0  0  0  0  0
    4.9433  -22.7635   -9.3173 O   0  0  0  0  0  0  0  0  0  0  0  0
    5.5584  -26.0394   -6.5372 O   0  0  0  0  0  0  0  0  0  0  0  0
    7.5628  -26.0962  -13.8540 H   0  0  0  0  0  0  0  0  0  0  0  0
    8.0315  -29.1227  -11.3254 H   0  0  0  0  0  0  0  0  0  0  0  0
    9.9891  -25.7565  -13.9189 H   0  0  0  0  0  0  0  0  0  0  0  0
   10.4503  -28.7537  -11.4661 H   0  0  0  0  0  0  0  0  0  0  0  0
    9.7338  -23.0439  -10.5945 H   0  0  0  0  0  0  0  0  0  0  0  0
   10.2985  -26.2059   -8.0077 H   0  0  0  0  0  0  0  0  0  0  0  0
    5.3459  -25.6061  -12.8293 H   0  0  0  0  0  0  0  0  0  0  0  0
    5.8513  -28.7064  -10.1947 H   0  0  0  0  0  0  0  0  0  0  0  0
    7.5267  -22.5562   -9.5732 H   0  0  0  0  0  0  0  0  0  0  0  0
    8.1280  -25.7918   -6.8809 H   0  0  0  0  0  0  0  0  0  0  0  0
   14.0779  -25.1131  -10.8038 H   0  0  0  0  0  0  0  0  0  0  0  0
   15.4288  -25.6947  -11.7783 H   0  0  0  0  0  0  0  0  0  0  0  0
   13.9627  -24.1575  -13.0971 H   0  0  0  0  0  0  0  0  0  0  0  0
   13.9438  -25.7909  -13.7806 H   0  0  0  0  0  0  0  0  0  0  0  0
   14.4776  -27.5294  -10.4383 H   0  0  0  0  0  0  0  0  0  0  0  0
   14.2355  -27.8701  -12.1590 H   0  0  0  0  0  0  0  0  0  0  0  0
   11.7629  -26.0886  -13.1007 H   0  0  0  0  0  0  0  0  0  0  0  0
   11.9661  -27.6251  -11.8871 H   0  0  0  0  0  0  0  0  0  0  0  0
    3.4589  -25.0889  -11.8354 H   0  0  0  0  0  0  0  0  0  0  0  0
    3.9993  -28.2580   -9.1061 H   0  0  0  0  0  0  0  0  0  0  0  0
    5.5177  -22.2119   -8.7633 H   0  0  0  0  0  0  0  0  0  0  0  0
    6.1486  -25.5086   -5.9795 H   0  0  0  0  0  0  0  0  0  0  0  0
  1  3  2  0  0  0  0
  1 11  1  0  0  0  0
  2  4  2  0  0  0  0
  2 12  1  0  0  0  0
  3 15  1  0  0  0  0
  4 16  1  0  0  0  0
  5 13  1  0  0  0  0
  5 15  2  0  0  0  0
  6 14  1  0  0  0  0
  6 16  2  0  0  0  0
  7 11  2  0  0  0  0
  7 17  1  0  0  0  0
  8 12  1  0  0  0  0
  8 18  2  0  0  0  0
  9 13  2  0  0  0  0
  9 19  1  0  0  0  0
 10 14  1  0  0  0  0
 10 20  2  0  0  0  0
 11 13  1  0  0  0  0
 12 14  2  0  0  0  0
 15 21  1  0  0  0  0
 16 22  1  0  0  0  0
 17 19  2  0  0  0  0
 17 30  1  0  0  0  0
 18 20  1  0  0  0  0
 18 31  1  0  0  0  0
 19 32  1  0  0  0  0
 20 33  1  0  0  0  0
 21 26  1  0  0  0  0
 21 28  2  0  0  0  0
 22 27  1  0  0  0  0
 22 29  2  0  0  0  0
 23 24  1  0  0  0  0
 23 25  1  0  0  0  0
 24 26  1  0  0  0  0
 25 27  1  0  0  0  0
  1 34  1  0  0  0  0
  2 35  1  0  0  0  0
  3 36  1  0  0  0  0
  4 37  1  0  0  0  0
  5 38  1  0  0  0  0
  6 39  1  0  0  0  0
  7 40  1  0  0  0  0
  8 41  1  0  0  0  0
  9 42  1  0  0  0  0
 10 43  1  0  0  0  0
 23 44  1  0  0  0  0
 23 45  1  0  0  0  0
 24 46  1  0  0  0  0
 24 47  1  0  0  0  0
 25 48  1  0  0  0  0
 25 49  1  0  0  0  0
 26 50  1  0  0  0  0
 27 51  1  0  0  0  0
 30 52  1  0  0  0  0
 31 53  1  0  0  0  0
 32 54  1  0  0  0  0
 33 55  1  0  0  0  0
M  END
> <Hybrid2>
-1.258130431175232

> <Hybrid2>
0.239861

$$$$
CHEMBL380034
  -OEChem-02152218483D

 43 46  0     0  0  0  0  0  0999 V2000
   13.0941  -25.8331  -10.0762 C   0  0  0  0  0  0  0  0  0  0  0  0
   12.7550  -26.9747  -12.1784 C   0  0  0  0  0  0  0  0  0  0  0  0
   14.3007  -26.5111   -9.9027 C   0  0  0  0  0  0  0  0  0  0  0  0
   13.9617  -27.6526  -12.0049 C   0  0  0  0  0  0  0  0  0  0  0  0
    7.9073  -26.5956   -9.8691 C   0  0  0  0  0  0  0  0  0  0  0  0
    8.5994  -27.7844  -10.0854 C   0  0  0  0  0  0  0  0  0  0  0  0
   12.3212  -26.0650  -11.2141 C   0  0  0  0  0  0  0  0  0  0  0  0
    6.0548  -27.7761   -8.9426 C   0  0  0  0  0  0  0  0  0  0  0  0
    6.7660  -28.9976   -9.1234 C   0  0  0  0  0  0  0  0  0  0  0  0
    6.6484  -26.5572   -9.3028 C   0  0  0  0  0  0  0  0  0  0  0  0
    8.0392  -28.9936   -9.7205 C   0  0  0  0  0  0  0  0  0  0  0  0
   14.7345  -27.4208  -10.8670 C   0  0  0  0  0  0  0  0  0  0  0  0
    8.7387  -25.4835  -10.3435 C   0  0  0  0  0  0  0  0  0  0  0  0
    9.9227  -27.5113  -10.7149 C   0  0  0  0  0  0  0  0  0  0  0  0
    4.0742  -29.0510   -8.2801 C   0  0  0  0  0  0  0  0  0  0  0  0
    5.0218  -30.1729   -7.8725 C   0  0  0  0  0  0  0  0  0  0  0  0
    8.5225  -30.8111  -11.1761 C   0  0  0  0  0  0  0  0  0  0  0  0
   11.0227  -25.3350  -11.4019 C   0  0  0  0  0  0  0  0  0  0  0  0
    4.7803  -27.7882   -8.3786 N   0  0  0  0  0  0  0  0  0  0  0  0
    6.1865  -30.2050   -8.7359 N   0  0  0  0  0  0  0  0  0  0  0  0
    9.9076  -26.0581  -10.8302 N   0  0  0  0  0  0  0  0  0  0  0  0
    8.4079  -24.3133  -10.2908 O   0  0  0  0  0  0  0  0  0  0  0  0
    5.9973  -25.3794   -9.1149 O   0  0  0  0  0  0  0  0  0  0  0  0
    8.7213  -30.1529   -9.9258 O   0  0  0  0  0  0  0  0  0  0  0  0
   15.8945  -28.0699  -10.7018 F   0  0  0  0  0  0  0  0  0  0  0  0
   12.7640  -25.1268   -9.3190 H   0  0  0  0  0  0  0  0  0  0  0  0
   12.1597  -27.1615  -13.0683 H   0  0  0  0  0  0  0  0  0  0  0  0
   14.9028  -26.3302   -9.0173 H   0  0  0  0  0  0  0  0  0  0  0  0
   14.2995  -28.3612  -12.7552 H   0  0  0  0  0  0  0  0  0  0  0  0
   10.7545  -27.8125  -10.0721 H   0  0  0  0  0  0  0  0  0  0  0  0
   10.0022  -27.9506  -11.7131 H   0  0  0  0  0  0  0  0  0  0  0  0
    3.6093  -29.2831   -9.2461 H   0  0  0  0  0  0  0  0  0  0  0  0
    3.2663  -28.9584   -7.5465 H   0  0  0  0  0  0  0  0  0  0  0  0
    5.3442  -30.0347   -6.8333 H   0  0  0  0  0  0  0  0  0  0  0  0
    4.5048  -31.1371   -7.9250 H   0  0  0  0  0  0  0  0  0  0  0  0
    9.1250  -31.7222  -11.2090 H   0  0  0  0  0  0  0  0  0  0  0  0
    8.8098  -30.1419  -11.9910 H   0  0  0  0  0  0  0  0  0  0  0  0
    7.4662  -31.0718  -11.2766 H   0  0  0  0  0  0  0  0  0  0  0  0
   11.0628  -24.3478  -10.9287 H   0  0  0  0  0  0  0  0  0  0  0  0
   10.8104  -25.1779  -12.4646 H   0  0  0  0  0  0  0  0  0  0  0  0
    4.2617  -26.9202   -8.3166 H   0  0  0  0  0  0  0  0  0  0  0  0
    6.7288  -31.0573   -8.8114 H   0  0  0  0  0  0  0  0  0  0  0  0
    6.5411  -24.6382   -9.4283 H   0  0  0  0  0  0  0  0  0  0  0  0
  1  3  2  0  0  0  0
  1  7  1  0  0  0  0
  2  4  1  0  0  0  0
  2  7  2  0  0  0  0
  3 12  1  0  0  0  0
  4 12  2  0  0  0  0
  5  6  2  0  0  0  0
  5 10  1  0  0  0  0
  5 13  1  0  0  0  0
  6 11  1  0  0  0  0
  6 14  1  0  0  0  0
  7 18  1  0  0  0  0
  8  9  1  0  0  0  0
  8 10  2  0  0  0  0
  8 19  1  0  0  0  0
  9 11  2  0  0  0  0
  9 20  1  0  0  0  0
 10 23  1  0  0  0  0
 11 24  1  0  0  0  0
 12 25  1  0  0  0  0
 13 21  1  0  0  0  0
 13 22  2  0  0  0  0
 14 21  1  0  0  0  0
 15 16  1  0  0  0  0
 15 19  1  0  0  0  0
 16 20  1  0  0  0  0
 17 24  1  0  0  0  0
 18 21  1  0  0  0  0
  1 26  1  0  0  0  0
  2 27  1  0  0  0  0
  3 28  1  0  0  0  0
  4 29  1  0  0  0  0
 14 30  1  0  0  0  0
 14 31  1  0  0  0  0
 15 32  1  0  0  0  0
 15 33  1  0  0  0  0
 16 34  1  0  0  0  0
 16 35  1  0  0  0  0
 17 36  1  0  0  0  0
 17 37  1  0  0  0  0
 17 38  1  0  0  0  0
 18 39  1  0  0  0  0
 18 40  1  0  0  0  0
 19 41  1  0  0  0  0
 20 42  1  0  0  0  0
 23 43  1  0  0  0  0
M  END
> <Hybrid2>
-5.740396022796631

> <Hybrid2>
-5.740396

$$$$
CHEMBL380034
  -OEChem-02152218483D

 43 46  0     0  0  0  0  0  0999 V2000
   13.4620  -25.9707   -9.7305 C   0  0  0  0  0  0  0  0  0  0  0  0
   13.1182  -27.0693  -11.8546 C   0  0  0  0  0  0  0  0  0  0  0  0
   14.5796  -26.7719   -9.4969 C   0  0  0  0  0  0  0  0  0  0  0  0
   14.2359  -27.8706  -11.6211 C   0  0  0  0  0  0  0  0  0  0  0  0
    8.2203  -26.1830   -9.8049 C   0  0  0  0  0  0  0  0  0  0  0  0
    8.7942  -27.4380   -9.9911 C   0  0  0  0  0  0  0  0  0  0  0  0
   12.7313  -26.1194  -10.9093 C   0  0  0  0  0  0  0  0  0  0  0  0
    6.2069  -27.1624   -8.9856 C   0  0  0  0  0  0  0  0  0  0  0  0
    6.7944  -28.4518   -9.1356 C   0  0  0  0  0  0  0  0  0  0  0  0
    6.9437  -26.0126   -9.3062 C   0  0  0  0  0  0  0  0  0  0  0  0
    8.0912  -28.5817   -9.6639 C   0  0  0  0  0  0  0  0  0  0  0  0
   14.9666  -27.7218  -10.4422 C   0  0  0  0  0  0  0  0  0  0  0  0
    9.1882  -25.1644  -10.2275 C   0  0  0  0  0  0  0  0  0  0  0  0
   10.1707  -27.3055  -10.5475 C   0  0  0  0  0  0  0  0  0  0  0  0
    4.0706  -28.2220   -8.4374 C   0  0  0  0  0  0  0  0  0  0  0  0
    4.8718  -29.4376   -7.9866 C   0  0  0  0  0  0  0  0  0  0  0  0
    8.4583  -30.4394  -11.1027 C   0  0  0  0  0  0  0  0  0  0  0  0
   11.5286  -25.2568  -11.1617 C   0  0  0  0  0  0  0  0  0  0  0  0
    4.9098  -27.0404   -8.4905 N   0  0  0  0  0  0  0  0  0  0  0  0
    6.0714  -29.5917   -8.7869 N   0  0  0  0  0  0  0  0  0  0  0  0
   10.3146  -25.8587  -10.6547 N   0  0  0  0  0  0  0  0  0  0  0  0
    8.9797  -23.9659  -10.1855 O   0  0  0  0  0  0  0  0  0  0  0  0
    6.4109  -24.7729   -9.1463 O   0  0  0  0  0  0  0  0  0  0  0  0
    8.6578  -29.8062   -9.8395 O   0  0  0  0  0  0  0  0  0  0  0  0
   16.0414  -28.4895  -10.2193 F   0  0  0  0  0  0  0  0  0  0  0  0
   13.1678  -25.2338   -8.9877 H   0  0  0  0  0  0  0  0  0  0  0  0
   12.5551  -27.1921  -12.7761 H   0  0  0  0  0  0  0  0  0  0  0  0
   15.1490  -26.6558   -8.5797 H   0  0  0  0  0  0  0  0  0  0  0  0
   14.5372  -28.6105  -12.3566 H   0  0  0  0  0  0  0  0  0  0  0  0
   10.9305  -27.6927   -9.8631 H   0  0  0  0  0  0  0  0  0  0  0  0
   10.2571  -27.7503  -11.5426 H   0  0  0  0  0  0  0  0  0  0  0  0
    3.6364  -28.4034   -9.4281 H   0  0  0  0  0  0  0  0  0  0  0  0
    3.2387  -28.0452   -7.7474 H   0  0  0  0  0  0  0  0  0  0  0  0
    5.1507  -29.3345   -6.9308 H   0  0  0  0  0  0  0  0  0  0  0  0
    4.2600  -30.3419   -8.0725 H   0  0  0  0  0  0  0  0  0  0  0  0
    8.9626  -31.4088  -11.1089 H   0  0  0  0  0  0  0  0  0  0  0  0
    8.8577  -29.8038  -11.8970 H   0  0  0  0  0  0  0  0  0  0  0  0
    7.3874  -30.5874  -11.2609 H   0  0  0  0  0  0  0  0  0  0  0  0
   11.6468  -24.2795  -10.6810 H   0  0  0  0  0  0  0  0  0  0  0  0
   11.3913  -25.0777  -12.2332 H   0  0  0  0  0  0  0  0  0  0  0  0
    4.4827  -26.1228   -8.4510 H   0  0  0  0  0  0  0  0  0  0  0  0
    6.5244  -30.4963   -8.8384 H   0  0  0  0  0  0  0  0  0  0  0  0
    7.0456  -24.0928   -9.4257 H   0  0  0  0  0  0  0  0  0  0  0  0
  1  3  2  0  0  0  0
  1  7  1  0  0  0  0
  2  4  1  0  0  0  0
  2  7  2  0  0  0  0
  3 12  1  0  0  0  0
  4 12  2  0  0  0  0
  5  6  2  0  0  0  0
  5 10  1  0  0  0  0
  5 13  1  0  0  0  0
  6 11  1  0  0  0  0
  6 14  1  0  0  0  0
  7 18  1  0  0  0  0
  8  9  1  0  0  0  0
  8 10  2  0  0  0  0
  8 19  1  0  0  0  0
  9 11  2  0  0  0  0
  9 20  1  0  0  0  0
 10 23  1  0  0  0  0
 11 24  1  0  0  0  0
 12 25  1  0  0  0  0
 13 21  1  0  0  0  0
 13 22  2  0  0  0  0
 14 21  1  0  0  0  0
 15 16  1  0  0  0  0
 15 19  1  0  0  0  0
 16 20  1  0  0  0  0
 17 24  1  0  0  0  0
 18 21  1  0  0  0  0
  1 26  1  0  0  0  0
  2 27  1  0  0  0  0
  3 28  1  0  0  0  0
  4 29  1  0  0  0  0
 14 30  1  0  0  0  0
 14 31  1  0  0  0  0
 15 32  1  0  0  0  0
 15 33  1  0  0  0  0
 16 34  1  0  0  0  0
 16 35  1  0  0  0  0
 17 36  1  0  0  0  0
 17 37  1  0  0  0  0
 17 38  1  0  0  0  0
 18 39  1  0  0  0  0
 18 40  1  0  0  0  0
 19 41  1  0  0  0  0
 20 42  1  0  0  0  0
 23 43  1  0  0  0  0
M  END
> <Hybrid2>
-5.740396022796631

> <Hybrid2>
-5.624052

$$$$
CHEMBL148364
  -OEChem-02152218483D

 50 51  0     1  0  0  0  0  0999 V2000
    5.2002  -29.9693   -7.9057 C   0  0  0  0  0  0  0  0  0  0  0  0
   13.6840  -25.8218  -10.0928 C   0  0  0  0  0  0  0  0  0  0  0  0
    4.6852  -31.2605   -8.0204 C   0  0  0  0  0  0  0  0  0  0  0  0
   14.7012  -26.7559   -9.8970 C   0  0  0  0  0  0  0  0  0  0  0  0
    3.2624  -29.0944   -9.0531 C   0  0  0  0  0  0  0  0  0  0  0  0
   12.5976  -27.3286  -11.6376 C   0  0  0  0  0  0  0  0  0  0  0  0
    4.4888  -28.8862   -8.4220 C   0  0  0  0  0  0  0  0  0  0  0  0
   12.6322  -26.1082  -10.9631 C   0  0  0  0  0  0  0  0  0  0  0  0
    3.4588  -31.4687   -8.6515 C   0  0  0  0  0  0  0  0  0  0  0  0
   14.6666  -27.9764  -10.5715 C   0  0  0  0  0  0  0  0  0  0  0  0
    2.7474  -30.3856   -9.1678 C   0  0  0  0  0  0  0  0  0  0  0  0
   13.6148  -28.2628  -11.4418 C   0  0  0  0  0  0  0  0  0  0  0  0
    5.9135  -27.0946   -9.4652 C   0  0  0  0  0  0  0  0  0  0  0  0
   10.3867  -25.2672  -10.2024 C   0  0  0  0  0  0  0  0  0  0  0  0
    6.4342  -24.6401  -11.3736 C   0  0  0  0  0  0  0  0  0  0  0  0
    7.7709  -22.9400   -9.4949 C   0  0  0  0  0  0  0  0  0  0  0  0
    5.0439  -27.4910   -8.2958 C   0  0  0  0  0  0  0  0  0  0  0  0
   11.5319  -25.1002  -11.1727 C   0  0  0  0  0  0  0  0  0  0  0  0
    7.2438  -25.3131  -10.2762 C   0  0  1  0  0  0  0  0  0  0  0  0
    8.2690  -24.3669   -9.6493 C   0  0  1  0  0  0  0  0  0  0  0  0
    6.1442  -27.7897  -10.4454 O   0  0  0  0  0  0  0  0  0  0  0  0
   10.3313  -26.0991   -9.3069 O   0  0  0  0  0  0  0  0  0  0  0  0
    5.2168  -24.5096  -11.3309 O   0  0  0  0  0  0  0  0  0  0  0  0
    8.2493  -21.9678  -10.0645 O   0  0  0  0  0  0  0  0  0  0  0  0
    2.9668  -32.7347   -8.7572 O   0  0  0  0  0  0  0  0  0  0  0  0
   15.6663  -28.8802  -10.3716 O   0  0  0  0  0  0  0  0  0  0  0  0
    1.5491  -30.5765   -9.7870 O   0  0  0  0  0  0  0  0  0  0  0  0
   13.5706  -29.4509  -12.1067 O   0  0  0  0  0  0  0  0  0  0  0  0
    7.1841  -24.2230  -12.4228 O   0  0  0  0  0  0  0  0  0  0  0  0
    6.7358  -22.8484   -8.6211 O   0  0  0  0  0  0  0  0  0  0  0  0
    6.4050  -25.8296   -9.2575 O   0  0  0  0  0  0  0  0  0  0  0  0
    9.4201  -24.3374  -10.4844 O   0  0  0  0  0  0  0  0  0  0  0  0
    6.1556  -29.8164   -7.4110 H   0  0  0  0  0  0  0  0  0  0  0  0
   13.7183  -24.8743   -9.5618 H   0  0  0  0  0  0  0  0  0  0  0  0
    5.2448  -32.0997   -7.6164 H   0  0  0  0  0  0  0  0  0  0  0  0
   15.5177  -26.5262   -9.2180 H   0  0  0  0  0  0  0  0  0  0  0  0
    2.7056  -28.2518   -9.4559 H   0  0  0  0  0  0  0  0  0  0  0  0
   11.7785  -27.5546  -12.3161 H   0  0  0  0  0  0  0  0  0  0  0  0
    4.2168  -26.7754   -8.2159 H   0  0  0  0  0  0  0  0  0  0  0  0
    5.6373  -27.4169   -7.3768 H   0  0  0  0  0  0  0  0  0  0  0  0
   11.9391  -24.0879  -11.0631 H   0  0  0  0  0  0  0  0  0  0  0  0
   11.1426  -25.1930  -12.1936 H   0  0  0  0  0  0  0  0  0  0  0  0
    7.7529  -26.1688  -10.7362 H   0  0  0  0  0  0  0  0  0  0  0  0
    8.5834  -24.7280   -8.6631 H   0  0  0  0  0  0  0  0  0  0  0  0
    3.5793  -33.3673   -8.3501 H   0  0  0  0  0  0  0  0  0  0  0  0
   16.3148  -28.5286   -9.7416 H   0  0  0  0  0  0  0  0  0  0  0  0
    1.1879  -29.7276  -10.0870 H   0  0  0  0  0  0  0  0  0  0  0  0
   12.7806  -29.4916  -12.6681 H   0  0  0  0  0  0  0  0  0  0  0  0
    6.6730  -23.8062  -13.1490 H   0  0  0  0  0  0  0  0  0  0  0  0
    6.3955  -21.9395   -8.4774 H   0  0  0  0  0  0  0  0  0  0  0  0
  1  3  2  0  0  0  0
  1  7  1  0  0  0  0
  2  4  2  0  0  0  0
  2  8  1  0  0  0  0
  3  9  1  0  0  0  0
  4 10  1  0  0  0  0
  5  7  2  0  0  0  0
  5 11  1  0  0  0  0
  6  8  2  0  0  0  0
  6 12  1  0  0  0  0
  7 17  1  0  0  0  0
  8 18  1  0  0  0  0
  9 11  2  0  0  0  0
  9 25  1  0  0  0  0
 10 12  2  0  0  0  0
 10 26  1  0  0  0  0
 11 27  1  0  0  0  0
 12 28  1  0  0  0  0
 13 17  1  0  0  0  0
 13 21  2  0  0  0  0
 13 31  1  0  0  0  0
 14 18  1  0  0  0  0
 14 22  2  0  0  0  0
 14 32  1  0  0  0  0
 15 19  1  0  0  0  0
 15 23  2  0  0  0  0
 15 29  1  0  0  0  0
 16 20  1  0  0  0  0
 16 24  2  0  0  0  0
 16 30  1  0  0  0  0
 19 20  1  0  0  0  0
 19 31  1  0  0  0  0
 20 32  1  0  0  0  0
  1 33  1  0  0  0  0
  2 34  1  0  0  0  0
  3 35  1  0  0  0  0
  4 36  1  0  0  0  0
  5 37  1  0  0  0  0
  6 38  1  0  0  0  0
 17 39  1  0  0  0  0
 17 40  1  0  0  0  0
 18 41  1  0  0  0  0
 18 42  1  0  0  0  0
 19 43  1  0  0  0  0
 20 44  1  0  0  0  0
 25 45  1  0  0  0  0
 26 46  1  0  0  0  0
 27 47  1  0  0  0  0
 28 48  1  0  0  0  0
 29 49  1  0  0  0  0
 30 50  1  0  0  0  0
M  END
> <Hybrid2>
-2.7398109436035156

> <Hybrid2>
-2.739811

$$$$
CHEMBL148364
  -OEChem-02152218483D

 50 51  0     1  0  0  0  0  0999 V2000
    5.7323  -30.0316   -8.5211 C   0  0  0  0  0  0  0  0  0  0  0  0
   14.6476  -27.0414  -10.8737 C   0  0  0  0  0  0  0  0  0  0  0  0
    5.0369  -31.2331   -8.6565 C   0  0  0  0  0  0  0  0  0  0  0  0
   15.5281  -28.1150  -10.7408 C   0  0  0  0  0  0  0  0  0  0  0  0
    3.9041  -28.8548   -9.5746 C   0  0  0  0  0  0  0  0  0  0  0  0
   13.3138  -28.3271  -12.4245 C   0  0  0  0  0  0  0  0  0  0  0  0
    5.1658  -28.8424   -8.9801 C   0  0  0  0  0  0  0  0  0  0  0  0
   13.5404  -27.1474  -11.7155 C   0  0  0  0  0  0  0  0  0  0  0  0
    3.7752  -31.2456   -9.2510 C   0  0  0  0  0  0  0  0  0  0  0  0
   15.3015  -29.2947  -11.4498 C   0  0  0  0  0  0  0  0  0  0  0  0
    3.2087  -30.0564   -9.7101 C   0  0  0  0  0  0  0  0  0  0  0  0
   14.1943  -29.4008  -12.2917 C   0  0  0  0  0  0  0  0  0  0  0  0
    6.7975  -27.2334  -10.0178 C   0  0  0  0  0  0  0  0  0  0  0  0
   11.4599  -26.0267  -10.8534 C   0  0  0  0  0  0  0  0  0  0  0  0
    7.6024  -24.8120  -11.8689 C   0  0  0  0  0  0  0  0  0  0  0  0
    9.2211  -23.3816   -9.9874 C   0  0  0  0  0  0  0  0  0  0  0  0
    5.9158  -27.5439   -8.8315 C   0  0  0  0  0  0  0  0  0  0  0  0
   12.5877  -25.9886  -11.8571 C   0  0  0  0  0  0  0  0  0  0  0  0
    8.3412  -25.6291  -10.8205 C   0  0  1  0  0  0  0  0  0  0  0  0
    9.5080  -24.8580  -10.2013 C   0  0  1  0  0  0  0  0  0  0  0  0
    6.8984  -27.9198  -11.0256 O   0  0  0  0  0  0  0  0  0  0  0  0
   11.3143  -26.8729   -9.9817 O   0  0  0  0  0  0  0  0  0  0  0  0
    6.4174  -24.5137  -11.7806 O   0  0  0  0  0  0  0  0  0  0  0  0
    9.8148  -22.4670  -10.5438 O   0  0  0  0  0  0  0  0  0  0  0  0
    3.1064  -32.4258   -9.3775 O   0  0  0  0  0  0  0  0  0  0  0  0
   16.1691  -30.3360  -11.3114 O   0  0  0  0  0  0  0  0  0  0  0  0
    1.9775  -30.0561  -10.2931 O   0  0  0  0  0  0  0  0  0  0  0  0
   13.9630  -30.5474  -12.9898 O   0  0  0  0  0  0  0  0  0  0  0  0
    8.3720  -24.4683  -12.9303 O   0  0  0  0  0  0  0  0  0  0  0  0
    8.2358  -23.1758   -9.0763 O   0  0  0  0  0  0  0  0  0  0  0  0
    7.4686  -26.0577   -9.7894 O   0  0  0  0  0  0  0  0  0  0  0  0
   10.6263  -24.9614  -11.0742 O   0  0  0  0  0  0  0  0  0  0  0  0
    6.7140  -30.0312   -8.0552 H   0  0  0  0  0  0  0  0  0  0  0  0
   14.8312  -26.1268  -10.3162 H   0  0  0  0  0  0  0  0  0  0  0  0
    5.4842  -32.1558   -8.2972 H   0  0  0  0  0  0  0  0  0  0  0  0
   16.3888  -28.0255  -10.0837 H   0  0  0  0  0  0  0  0  0  0  0  0
    3.4600  -27.9291   -9.9328 H   0  0  0  0  0  0  0  0  0  0  0  0
   12.4512  -28.4126  -13.0809 H   0  0  0  0  0  0  0  0  0  0  0  0
    5.2008  -26.7226   -8.7020 H   0  0  0  0  0  0  0  0  0  0  0  0
    6.5409  -27.5853   -7.9317 H   0  0  0  0  0  0  0  0  0  0  0  0
   13.1368  -25.0477  -11.7314 H   0  0  0  0  0  0  0  0  0  0  0  0
   12.1590  -25.9908  -12.8662 H   0  0  0  0  0  0  0  0  0  0  0  0
    8.7105  -26.5314  -11.3231 H   0  0  0  0  0  0  0  0  0  0  0  0
    9.7975  -25.2932   -9.2377 H   0  0  0  0  0  0  0  0  0  0  0  0
    3.6353  -33.1515   -9.0107 H   0  0  0  0  0  0  0  0  0  0  0  0
   16.8792  -30.1006  -10.6939 H   0  0  0  0  0  0  0  0  0  0  0  0
    1.7310  -29.1552  -10.5552 H   0  0  0  0  0  0  0  0  0  0  0  0
   13.1587  -30.4577  -13.5247 H   0  0  0  0  0  0  0  0  0  0  0  0
    7.9035  -23.9593  -13.6259 H   0  0  0  0  0  0  0  0  0  0  0  0
    8.0316  -22.2337   -8.8939 H   0  0  0  0  0  0  0  0  0  0  0  0
  1  3  2  0  0  0  0
  1  7  1  0  0  0  0
  2  4  2  0  0  0  0
  2  8  1  0  0  0  0
  3  9  1  0  0  0  0
  4 10  1  0  0  0  0
  5  7  2  0  0  0  0
  5 11  1  0  0  0  0
  6  8  2  0  0  0  0
  6 12  1  0  0  0  0
  7 17  1  0  0  0  0
  8 18  1  0  0  0  0
  9 11  2  0  0  0  0
  9 25  1  0  0  0  0
 10 12  2  0  0  0  0
 10 26  1  0  0  0  0
 11 27  1  0  0  0  0
 12 28  1  0  0  0  0
 13 17  1  0  0  0  0
 13 21  2  0  0  0  0
 13 31  1  0  0  0  0
 14 18  1  0  0  0  0
 14 22  2  0  0  0  0
 14 32  1  0  0  0  0
 15 19  1  0  0  0  0
 15 23  2  0  0  0  0
 15 29  1  0  0  0  0
 16 20  1  0  0  0  0
 16 24  2  0  0  0  0
 16 30  1  0  0  0  0
 19 20  1  0  0  0  0
 19 31  1  0  0  0  0
 20 32  1  0  0  0  0
  1 33  1  0  0  0  0
  2 34  1  0  0  0  0
  3 35  1  0  0  0  0
  4 36  1  0  0  0  0
  5 37  1  0  0  0  0
  6 38  1  0  0  0  0
 17 39  1  0  0  0  0
 17 40  1  0  0  0  0
 18 41  1  0  0  0  0
 18 42  1  0  0  0  0
 19 43  1  0  0  0  0
 20 44  1  0  0  0  0
 25 45  1  0  0  0  0
 26 46  1  0  0  0  0
 27 47  1  0  0  0  0
 28 48  1  0  0  0  0
 29 49  1  0  0  0  0
 30 50  1  0  0  0  0
M  END
> <Hybrid2>
-2.7398109436035156

> <Hybrid2>
-2.332092

$$$$
CHEMBL312608
  -OEChem-02152218483D

 37 39  0     0  0  0  0  0  0999 V2000
   13.0257  -25.1792  -12.5634 C   0  0  0  0  0  0  0  0  0  0  0  0
   10.6615  -24.6439  -12.2089 C   0  0  0  0  0  0  0  0  0  0  0  0
   14.1250  -25.9910  -12.2992 C   0  0  0  0  0  0  0  0  0  0  0  0
    5.7928  -27.6675   -8.7976 C   0  0  0  0  0  0  0  0  0  0  0  0
    4.7092  -28.3136   -8.2026 C   0  0  0  0  0  0  0  0  0  0  0  0
    9.4496  -24.9325  -11.5980 C   0  0  0  0  0  0  0  0  0  0  0  0
    6.9326  -29.7859   -9.0219 C   0  0  0  0  0  0  0  0  0  0  0  0
   11.7844  -25.4448  -11.9606 C   0  0  0  0  0  0  0  0  0  0  0  0
   13.9890  -27.0692  -11.4336 C   0  0  0  0  0  0  0  0  0  0  0  0
   11.6391  -26.5377  -11.0806 C   0  0  0  0  0  0  0  0  0  0  0  0
    6.9045  -28.4037   -9.2073 C   0  0  0  0  0  0  0  0  0  0  0  0
    4.7373  -29.6958   -8.0172 C   0  0  0  0  0  0  0  0  0  0  0  0
    5.8491  -30.4320   -8.4269 C   0  0  0  0  0  0  0  0  0  0  0  0
   12.7548  -27.3331  -10.8345 C   0  0  0  0  0  0  0  0  0  0  0  0
    9.4048  -26.0224  -10.7526 C   0  0  0  0  0  0  0  0  0  0  0  0
   15.1476  -27.9108  -11.1667 C   0  0  0  0  0  0  0  0  0  0  0  0
    8.1665  -26.3780  -10.0815 C   0  0  0  0  0  0  0  0  0  0  0  0
   10.4643  -26.8202  -10.4864 N   0  0  0  0  0  0  0  0  0  0  0  0
    8.0059  -27.7466   -9.8115 N   0  0  0  0  0  0  0  0  0  0  0  0
   15.2201  -29.1204  -11.4001 O   0  0  0  0  0  0  0  0  0  0  0  0
    7.3068  -25.5287   -9.8046 O   0  0  0  0  0  0  0  0  0  0  0  0
    3.6733  -30.3152   -7.4342 O   0  0  0  0  0  0  0  0  0  0  0  0
    5.8889  -31.7821   -8.2502 O   0  0  0  0  0  0  0  0  0  0  0  0
   12.6401  -28.3998   -9.9840 O   0  0  0  0  0  0  0  0  0  0  0  0
   16.1789  -27.2137  -10.6178 O   0  0  0  0  0  0  0  0  0  0  0  0
   13.1429  -24.3369  -13.2417 H   0  0  0  0  0  0  0  0  0  0  0  0
   10.7256  -23.7903  -12.8798 H   0  0  0  0  0  0  0  0  0  0  0  0
   15.0781  -25.7715  -12.7729 H   0  0  0  0  0  0  0  0  0  0  0  0
    5.7598  -26.5900   -8.9372 H   0  0  0  0  0  0  0  0  0  0  0  0
    3.8460  -27.7345   -7.8858 H   0  0  0  0  0  0  0  0  0  0  0  0
    8.5768  -24.3170  -11.7863 H   0  0  0  0  0  0  0  0  0  0  0  0
    7.7978  -30.3638   -9.3389 H   0  0  0  0  0  0  0  0  0  0  0  0
    8.7815  -28.3449  -10.0852 H   0  0  0  0  0  0  0  0  0  0  0  0
    2.9889  -29.6653   -7.2097 H   0  0  0  0  0  0  0  0  0  0  0  0
    6.7259  -32.1395   -8.5861 H   0  0  0  0  0  0  0  0  0  0  0  0
   13.4911  -28.8548   -9.9114 H   0  0  0  0  0  0  0  0  0  0  0  0
   16.9648  -27.7717  -10.4349 H   0  0  0  0  0  0  0  0  0  0  0  0
  1  3  2  0  0  0  0
  1  8  1  0  0  0  0
  2  6  2  0  0  0  0
  2  8  1  0  0  0  0
  3  9  1  0  0  0  0
  4  5  2  0  0  0  0
  4 11  1  0  0  0  0
  5 12  1  0  0  0  0
  6 15  1  0  0  0  0
  7 11  2  0  0  0  0
  7 13  1  0  0  0  0
  8 10  2  0  0  0  0
  9 14  2  0  0  0  0
  9 16  1  0  0  0  0
 10 14  1  0  0  0  0
 10 18  1  0  0  0  0
 11 19  1  0  0  0  0
 12 13  2  0  0  0  0
 12 22  1  0  0  0  0
 13 23  1  0  0  0  0
 14 24  1  0  0  0  0
 15 17  1  0  0  0  0
 15 18  2  0  0  0  0
 16 20  2  0  0  0  0
 16 25  1  0  0  0  0
 17 19  1  0  0  0  0
 17 21  2  0  0  0  0
  1 26  1  0  0  0  0
  2 27  1  0  0  0  0
  3 28  1  0  0  0  0
  4 29  1  0  0  0  0
  5 30  1  0  0  0  0
  6 31  1  0  0  0  0
  7 32  1  0  0  0  0
 19 33  1  0  0  0  0
 22 34  1  0  0  0  0
 23 35  1  0  0  0  0
 24 36  1  0  0  0  0
 25 37  1  0  0  0  0
M  END
> <Hybrid2>
-3.2364442348480225

> <Hybrid2>
-3.236444

$$$$
CHEMBL312608
  -OEChem-02152218483D

 37 39  0     0  0  0  0  0  0999 V2000
    5.6219  -26.7851   -8.4600 C   0  0  0  0  0  0  0  0  0  0  0  0
    7.2442  -25.0864   -9.1557 C   0  0  0  0  0  0  0  0  0  0  0  0
    5.2488  -28.1231   -8.3715 C   0  0  0  0  0  0  0  0  0  0  0  0
   13.3240  -25.4696  -11.8710 C   0  0  0  0  0  0  0  0  0  0  0  0
   14.6418  -25.4865  -12.3277 C   0  0  0  0  0  0  0  0  0  0  0  0
    8.4570  -24.7638   -9.7474 C   0  0  0  0  0  0  0  0  0  0  0  0
   13.6266  -27.6683  -10.9164 C   0  0  0  0  0  0  0  0  0  0  0  0
    6.8439  -26.4255   -9.0535 C   0  0  0  0  0  0  0  0  0  0  0  0
    6.0931  -29.1052   -8.8743 C   0  0  0  0  0  0  0  0  0  0  0  0
    7.7060  -27.4173   -9.5662 C   0  0  0  0  0  0  0  0  0  0  0  0
   12.8164  -26.5604  -11.1652 C   0  0  0  0  0  0  0  0  0  0  0  0
   15.4520  -26.5943  -12.0789 C   0  0  0  0  0  0  0  0  0  0  0  0
   14.9444  -27.6852  -11.3732 C   0  0  0  0  0  0  0  0  0  0  0  0
    7.3079  -28.7475   -9.4642 C   0  0  0  0  0  0  0  0  0  0  0  0
    9.2328  -25.8028  -10.2199 C   0  0  0  0  0  0  0  0  0  0  0  0
    5.6902  -30.5015   -8.7744 C   0  0  0  0  0  0  0  0  0  0  0  0
   10.5132  -25.5325  -10.8505 C   0  0  0  0  0  0  0  0  0  0  0  0
    8.8835  -27.1073  -10.1409 N   0  0  0  0  0  0  0  0  0  0  0  0
   11.4767  -26.5431  -10.7017 N   0  0  0  0  0  0  0  0  0  0  0  0
    6.3138  -31.3833   -8.1773 O   0  0  0  0  0  0  0  0  0  0  0  0
   10.7369  -24.4672  -11.4439 O   0  0  0  0  0  0  0  0  0  0  0  0
   16.7371  -26.5993  -12.5308 O   0  0  0  0  0  0  0  0  0  0  0  0
   15.7254  -28.7734  -11.1249 O   0  0  0  0  0  0  0  0  0  0  0  0
    8.1266  -29.7291   -9.9545 O   0  0  0  0  0  0  0  0  0  0  0  0
    4.5205  -30.7510   -9.4225 O   0  0  0  0  0  0  0  0  0  0  0  0
    4.9533  -26.0238   -8.0643 H   0  0  0  0  0  0  0  0  0  0  0  0
    6.6123  -24.2872   -8.7749 H   0  0  0  0  0  0  0  0  0  0  0  0
    4.3001  -28.3844   -7.9103 H   0  0  0  0  0  0  0  0  0  0  0  0
   12.7018  -24.6008  -12.0705 H   0  0  0  0  0  0  0  0  0  0  0  0
   15.0315  -24.6334  -12.8767 H   0  0  0  0  0  0  0  0  0  0  0  0
    8.7729  -23.7295   -9.8292 H   0  0  0  0  0  0  0  0  0  0  0  0
   13.2348  -28.5215  -10.3674 H   0  0  0  0  0  0  0  0  0  0  0  0
   11.1738  -27.3712  -10.1950 H   0  0  0  0  0  0  0  0  0  0  0  0
   16.9310  -25.7721  -12.9990 H   0  0  0  0  0  0  0  0  0  0  0  0
   15.2245  -29.4390  -10.6277 H   0  0  0  0  0  0  0  0  0  0  0  0
    7.7204  -30.5961   -9.8138 H   0  0  0  0  0  0  0  0  0  0  0  0
    4.2399  -31.6889   -9.3604 H   0  0  0  0  0  0  0  0  0  0  0  0
  1  3  2  0  0  0  0
  1  8  1  0  0  0  0
  2  6  2  0  0  0  0
  2  8  1  0  0  0  0
  3  9  1  0  0  0  0
  4  5  2  0  0  0  0
  4 11  1  0  0  0  0
  5 12  1  0  0  0  0
  6 15  1  0  0  0  0
  7 11  2  0  0  0  0
  7 13  1  0  0  0  0
  8 10  2  0  0  0  0
  9 14  2  0  0  0  0
  9 16  1  0  0  0  0
 10 14  1  0  0  0  0
 10 18  1  0  0  0  0
 11 19  1  0  0  0  0
 12 13  2  0  0  0  0
 12 22  1  0  0  0  0
 13 23  1  0  0  0  0
 14 24  1  0  0  0  0
 15 17  1  0  0  0  0
 15 18  2  0  0  0  0
 16 20  2  0  0  0  0
 16 25  1  0  0  0  0
 17 19  1  0  0  0  0
 17 21  2  0  0  0  0
  1 26  1  0  0  0  0
  2 27  1  0  0  0  0
  3 28  1  0  0  0  0
  4 29  1  0  0  0  0
  5 30  1  0  0  0  0
  6 31  1  0  0  0  0
  7 32  1  0  0  0  0
 19 33  1  0  0  0  0
 22 34  1  0  0  0  0
 23 35  1  0  0  0  0
 24 36  1  0  0  0  0
 25 37  1  0  0  0  0
M  END
> <Hybrid2>
-3.2364442348480225

> <Hybrid2>
-3.148540

$$$$
CHEMBL179
  -OEChem-02152218483D

 68 72  0     1  0  0  0  0  0999 V2000
   15.8117  -24.4015  -12.1340 C   0  0  0  0  0  0  0  0  0  0  0  0
   14.7417  -23.7091  -11.5664 C   0  0  0  0  0  0  0  0  0  0  0  0
   15.6517  -25.7253  -12.5386 C   0  0  0  0  0  0  0  0  0  0  0  0
   13.5051  -24.3447  -11.4029 C   0  0  0  0  0  0  0  0  0  0  0  0
   13.3447  -25.6711  -11.8086 C   0  0  0  0  0  0  0  0  0  0  0  0
   11.0783  -24.2884  -10.6354 C   0  0  0  0  0  0  0  0  0  0  0  0
   10.9190  -25.6119  -11.0365 C   0  0  0  0  0  0  0  0  0  0  0  0
    8.7513  -24.2239   -9.9105 C   0  0  0  0  0  0  0  0  0  0  0  0
    8.5953  -25.5704  -10.2865 C   0  0  0  0  0  0  0  0  0  0  0  0
   14.4209  -26.3623  -12.3777 C   0  0  0  0  0  0  0  0  0  0  0  0
    9.9988  -23.5979  -10.0741 C   0  0  0  0  0  0  0  0  0  0  0  0
    9.6827  -26.2471  -10.8678 C   0  0  0  0  0  0  0  0  0  0  0  0
   12.3771  -23.6044  -10.8018 C   0  0  0  0  0  0  0  0  0  0  0  0
   12.0451  -26.3531  -11.6412 C   0  0  0  0  0  0  0  0  0  0  0  0
    5.6482  -23.7483  -10.8152 C   0  0  0  0  0  0  0  0  0  0  0  0
    7.6270  -23.4311   -9.2882 C   0  0  0  0  0  0  0  0  0  0  0  0
    6.2900  -25.5587   -9.2119 C   0  0  0  0  0  0  0  0  0  0  0  0
    7.1172  -29.8872  -10.3282 C   0  0  0  0  0  0  0  0  0  0  0  0
    7.2648  -26.2766  -10.1476 C   0  0  2  0  0  0  0  0  0  0  0  0
    7.3432  -30.5303   -8.9551 C   0  0  1  0  0  0  0  0  0  0  0  0
    6.0444  -30.5056   -8.1369 C   0  0  1  0  0  0  0  0  0  0  0  0
    5.4988  -29.0713   -8.0737 C   0  0  2  0  0  0  0  0  0  0  0  0
    6.4983  -28.4960  -10.1795 C   0  0  1  0  0  0  0  0  0  0  0  0
    6.2430  -24.0580   -9.4701 C   0  0  2  0  0  0  0  0  0  0  0  0
    4.1598  -28.9771   -7.3507 C   0  0  0  0  0  0  0  0  0  0  0  0
   14.6513  -28.6676  -11.8408 C   0  0  0  0  0  0  0  0  0  0  0  0
    4.2763  -24.3262  -11.0907 C   0  0  0  0  0  0  0  0  0  0  0  0
    7.8577  -31.8902   -9.1161 N   0  0  0  0  0  0  0  0  0  0  0  0
   12.5169  -22.4402  -10.4478 O   0  0  0  0  0  0  0  0  0  0  0  0
   11.9043  -27.5163  -11.9978 O   0  0  0  0  0  0  0  0  0  0  0  0
    6.2520  -23.0617  -11.6381 O   0  0  0  0  0  0  0  0  0  0  0  0
    5.3062  -28.5439   -9.3930 O   0  0  0  0  0  0  0  0  0  0  0  0
   10.1277  -22.2995   -9.6638 O   0  0  0  0  0  0  0  0  0  0  0  0
    9.4928  -27.5298  -11.3039 O   0  0  0  0  0  0  0  0  0  0  0  0
    5.0839  -31.3627   -8.7564 O   0  0  0  0  0  0  0  0  0  0  0  0
    5.3291  -23.4716   -8.5469 O   0  0  0  0  0  0  0  0  0  0  0  0
    3.8381  -23.9744  -12.3860 O   0  0  0  0  0  0  0  0  0  0  0  0
   14.3359  -27.6573  -12.7960 O   0  0  0  0  0  0  0  0  0  0  0  0
    7.4612  -27.5994   -9.6498 O   0  0  0  0  0  0  0  0  0  0  0  0
   16.7709  -23.9078  -12.2606 H   0  0  0  0  0  0  0  0  0  0  0  0
   14.8941  -22.6778  -11.2597 H   0  0  0  0  0  0  0  0  0  0  0  0
   16.4922  -26.2550  -12.9795 H   0  0  0  0  0  0  0  0  0  0  0  0
    7.8415  -23.3270   -8.2158 H   0  0  0  0  0  0  0  0  0  0  0  0
    7.6123  -22.4128   -9.6987 H   0  0  0  0  0  0  0  0  0  0  0  0
    5.2908  -26.0054   -9.3065 H   0  0  0  0  0  0  0  0  0  0  0  0
    6.5686  -25.7422   -8.1639 H   0  0  0  0  0  0  0  0  0  0  0  0
    8.0697  -29.8183  -10.8676 H   0  0  0  0  0  0  0  0  0  0  0  0
    6.4395  -30.5142  -10.9220 H   0  0  0  0  0  0  0  0  0  0  0  0
    6.8273  -26.3578  -11.1550 H   0  0  0  0  0  0  0  0  0  0  0  0
    8.1055  -29.9509   -8.4193 H   0  0  0  0  0  0  0  0  0  0  0  0
    6.2307  -30.8881   -7.1260 H   0  0  0  0  0  0  0  0  0  0  0  0
    6.2143  -28.4307   -7.5426 H   0  0  0  0  0  0  0  0  0  0  0  0
    6.2205  -28.1300  -11.1740 H   0  0  0  0  0  0  0  0  0  0  0  0
    3.4218  -29.6028   -7.8520 H   0  0  0  0  0  0  0  0  0  0  0  0
    3.8089  -27.9455   -7.3512 H   0  0  0  0  0  0  0  0  0  0  0  0
    4.2692  -29.3140   -6.3202 H   0  0  0  0  0  0  0  0  0  0  0  0
   14.5440  -29.6524  -12.3021 H   0  0  0  0  0  0  0  0  0  0  0  0
   13.9807  -28.5806  -10.9822 H   0  0  0  0  0  0  0  0  0  0  0  0
   15.6837  -28.5336  -11.5093 H   0  0  0  0  0  0  0  0  0  0  0  0
    3.5611  -23.9482  -10.3550 H   0  0  0  0  0  0  0  0  0  0  0  0
    4.3296  -25.4162  -11.0276 H   0  0  0  0  0  0  0  0  0  0  0  0
    7.2316  -32.5121   -8.6637 H   0  0  0  0  0  0  0  0  0  0  0  0
    7.9098  -32.0864  -10.0868 H   0  0  0  0  0  0  0  0  0  0  0  0
   11.0306  -21.9903   -9.8267 H   0  0  0  0  0  0  0  0  0  0  0  0
   10.3064  -27.8640  -11.7083 H   0  0  0  0  0  0  0  0  0  0  0  0
    4.9417  -31.0132   -9.6487 H   0  0  0  0  0  0  0  0  0  0  0  0
    5.6790  -23.6503   -7.6602 H   0  0  0  0  0  0  0  0  0  0  0  0
    2.9568  -24.3690  -12.5106 H   0  0  0  0  0  0  0  0  0  0  0  0
  1  2  1  0  0  0  0
  1  3  2  0  0  0  0
  2  4  2  0  0  0  0
  3 10  1  0  0  0  0
  4  5  1  0  0  0  0
  4 13  1  0  0  0  0
  5 10  2  0  0  0  0
  5 14  1  0  0  0  0
  6  7  2  0  0  0  0
  6 11  1  0  0  0  0
  6 13  1  0  0  0  0
  7 12  1  0  0  0  0
  7 14  1  0  0  0  0
  8  9  1  0  0  0  0
  8 11  2  0  0  0  0
  8 16  1  0  0  0  0
  9 12  2  0  0  0  0
  9 19  1  0  0  0  0
 10 38  1  0  0  0  0
 11 33  1  0  0  0  0
 12 34  1  0  0  0  0
 13 29  2  0  0  0  0
 14 30  2  0  0  0  0
 15 24  1  0  0  0  0
 15 27  1  0  0  0  0
 15 31  2  0  0  0  0
 16 24  1  0  0  0  0
 17 19  1  0  0  0  0
 17 24  1  0  0  0  0
 18 20  1  0  0  0  0
 18 23  1  0  0  0  0
 19 39  1  0  0  0  0
 20 21  1  0  0  0  0
 20 28  1  0  0  0  0
 21 22  1  0  0  0  0
 21 35  1  0  0  0  0
 22 25  1  0  0  0  0
 22 32  1  0  0  0  0
 23 32  1  0  0  0  0
 23 39  1  0  0  0  0
 24 36  1  0  0  0  0
 26 38  1  0  0  0  0
 27 37  1  0  0  0  0
  1 40  1  0  0  0  0
  2 41  1  0  0  0  0
  3 42  1  0  0  0  0
 16 43  1  0  0  0  0
 16 44  1  0  0  0  0
 17 45  1  0  0  0  0
 17 46  1  0  0  0  0
 18 47  1  0  0  0  0
 18 48  1  0  0  0  0
 19 49  1  0  0  0  0
 20 50  1  0  0  0  0
 21 51  1  0  0  0  0
 22 52  1  0  0  0  0
 23 53  1  0  0  0  0
 25 54  1  0  0  0  0
 25 55  1  0  0  0  0
 25 56  1  0  0  0  0
 26 57  1  0  0  0  0
 26 58  1  0  0  0  0
 26 59  1  0  0  0  0
 27 60  1  0  0  0  0
 27 61  1  0  0  0  0
 28 62  1  0  0  0  0
 28 63  1  0  0  0  0
 33 64  1  0  0  0  0
 34 65  1  0  0  0  0
 35 66  1  0  0  0  0
 36 67  1  0  0  0  0
 37 68  1  0  0  0  0
M  END
> <Hybrid2>
-0.24805378913879395

> <Hybrid2>
-0.248054

$$$$
CHEMBL179
  -OEChem-02152218483D

 68 72  0     1  0  0  0  0  0999 V2000
   14.9599  -23.7337  -10.8046 C   0  0  0  0  0  0  0  0  0  0  0  0
   13.6875  -23.3046  -10.4259 C   0  0  0  0  0  0  0  0  0  0  0  0
   15.1425  -25.0201  -11.3084 C   0  0  0  0  0  0  0  0  0  0  0  0
   12.5921  -24.1672  -10.5521 C   0  0  0  0  0  0  0  0  0  0  0  0
   12.7751  -25.4563  -11.0566 C   0  0  0  0  0  0  0  0  0  0  0  0
   10.1020  -24.6273  -10.2852 C   0  0  0  0  0  0  0  0  0  0  0  0
   10.2843  -25.9123  -10.7904 C   0  0  0  0  0  0  0  0  0  0  0  0
    7.7175  -25.0620  -10.0219 C   0  0  0  0  0  0  0  0  0  0  0  0
    7.8988  -26.3533  -10.5458 C   0  0  0  0  0  0  0  0  0  0  0  0
   14.0536  -25.8829  -11.4356 C   0  0  0  0  0  0  0  0  0  0  0  0
    8.8235  -24.2035   -9.9051 C   0  0  0  0  0  0  0  0  0  0  0  0
    9.1874  -26.7718  -10.9188 C   0  0  0  0  0  0  0  0  0  0  0  0
   11.2483  -23.7053  -10.1483 C   0  0  0  0  0  0  0  0  0  0  0  0
   11.6277  -26.3763  -11.1941 C   0  0  0  0  0  0  0  0  0  0  0  0
    3.9323  -24.9874   -9.4492 C   0  0  0  0  0  0  0  0  0  0  0  0
    6.3549  -24.5409   -9.6248 C   0  0  0  0  0  0  0  0  0  0  0  0
    5.3774  -26.6432  -10.6283 C   0  0  0  0  0  0  0  0  0  0  0  0
    7.1215  -30.6972   -9.4314 C   0  0  0  0  0  0  0  0  0  0  0  0
    6.7493  -27.3229  -10.6848 C   0  0  2  0  0  0  0  0  0  0  0  0
    6.7191  -30.7984   -7.9557 C   0  0  1  0  0  0  0  0  0  0  0  0
    5.1931  -30.9057   -7.8276 C   0  0  1  0  0  0  0  0  0  0  0  0
    4.5268  -29.7439   -8.5793 C   0  0  2  0  0  0  0  0  0  0  0  0
    6.3550  -29.5699  -10.1258 C   0  0  1  0  0  0  0  0  0  0  0  0
    5.2889  -25.6307   -9.4841 C   0  0  2  0  0  0  0  0  0  0  0  0
    3.0045  -29.8288   -8.5736 C   0  0  0  0  0  0  0  0  0  0  0  0
   14.6295  -28.1480  -10.9959 C   0  0  0  0  0  0  0  0  0  0  0  0
    2.7500  -25.9230   -9.3125 C   0  0  0  0  0  0  0  0  0  0  0  0
    7.3979  -31.9314   -7.3267 N   0  0  0  0  0  0  0  0  0  0  0  0
   11.0873  -22.5739   -9.7077 O   0  0  0  0  0  0  0  0  0  0  0  0
   11.7882  -27.5071  -11.6364 O   0  0  0  0  0  0  0  0  0  0  0  0
    3.8017  -23.7668   -9.5278 O   0  0  0  0  0  0  0  0  0  0  0  0
    4.9449  -29.7217   -9.9506 O   0  0  0  0  0  0  0  0  0  0  0  0
    8.6160  -22.9477   -9.4049 O   0  0  0  0  0  0  0  0  0  0  0  0
    9.3390  -28.0226  -11.4491 O   0  0  0  0  0  0  0  0  0  0  0  0
    4.7628  -32.1509   -8.3802 O   0  0  0  0  0  0  0  0  0  0  0  0
    5.4306  -26.2664   -8.2197 O   0  0  0  0  0  0  0  0  0  0  0  0
    1.5386  -25.1978   -9.3051 O   0  0  0  0  0  0  0  0  0  0  0  0
   14.3053  -27.1262  -11.9358 O   0  0  0  0  0  0  0  0  0  0  0  0
    6.8267  -28.3155   -9.6616 O   0  0  0  0  0  0  0  0  0  0  0  0
   15.8094  -23.0640  -10.7063 H   0  0  0  0  0  0  0  0  0  0  0  0
   13.5735  -22.2967  -10.0361 H   0  0  0  0  0  0  0  0  0  0  0  0
   16.1382  -25.3435  -11.6007 H   0  0  0  0  0  0  0  0  0  0  0  0
    6.4627  -24.0110   -8.6698 H   0  0  0  0  0  0  0  0  0  0  0  0
    6.0095  -23.7978  -10.3540 H   0  0  0  0  0  0  0  0  0  0  0  0
    5.1610  -26.1652  -11.5906 H   0  0  0  0  0  0  0  0  0  0  0  0
    4.5870  -27.3954  -10.5114 H   0  0  0  0  0  0  0  0  0  0  0  0
    8.2012  -30.5212   -9.5111 H   0  0  0  0  0  0  0  0  0  0  0  0
    6.8971  -31.6435   -9.9406 H   0  0  0  0  0  0  0  0  0  0  0  0
    6.8734  -27.8346  -11.6576 H   0  0  0  0  0  0  0  0  0  0  0  0
    7.0506  -29.8883   -7.4401 H   0  0  0  0  0  0  0  0  0  0  0  0
    4.9037  -30.8919   -6.7697 H   0  0  0  0  0  0  0  0  0  0  0  0
    4.8130  -28.7934   -8.1115 H   0  0  0  0  0  0  0  0  0  0  0  0
    6.5590  -29.6203  -11.2010 H   0  0  0  0  0  0  0  0  0  0  0  0
    2.6825  -30.7633   -9.0322 H   0  0  0  0  0  0  0  0  0  0  0  0
    2.5837  -28.9950   -9.1349 H   0  0  0  0  0  0  0  0  0  0  0  0
    2.6339  -29.7901   -7.5496 H   0  0  0  0  0  0  0  0  0  0  0  0
   14.8066  -29.0877  -11.5249 H   0  0  0  0  0  0  0  0  0  0  0  0
   13.8065  -28.2664  -10.2866 H   0  0  0  0  0  0  0  0  0  0  0  0
   15.5347  -27.8602  -10.4560 H   0  0  0  0  0  0  0  0  0  0  0  0
    2.8337  -26.4914   -8.3822 H   0  0  0  0  0  0  0  0  0  0  0  0
    2.7376  -26.6084  -10.1641 H   0  0  0  0  0  0  0  0  0  0  0  0
    6.7061  -32.5407   -6.9611 H   0  0  0  0  0  0  0  0  0  0  0  0
    7.9397  -32.3888   -8.0201 H   0  0  0  0  0  0  0  0  0  0  0  0
    9.4536  -22.4632   -9.3723 H   0  0  0  0  0  0  0  0  0  0  0  0
   10.2654  -28.1684  -11.6895 H   0  0  0  0  0  0  0  0  0  0  0  0
    5.0361  -32.1458   -9.3096 H   0  0  0  0  0  0  0  0  0  0  0  0
    5.3619  -25.5683   -7.5501 H   0  0  0  0  0  0  0  0  0  0  0  0
    0.8152  -25.8434   -9.2157 H   0  0  0  0  0  0  0  0  0  0  0  0
  1  2  1  0  0  0  0
  1  3  2  0  0  0  0
  2  4  2  0  0  0  0
  3 10  1  0  0  0  0
  4  5  1  0  0  0  0
  4 13  1  0  0  0  0
  5 10  2  0  0  0  0
  5 14  1  0  0  0  0
  6  7  2  0  0  0  0
  6 11  1  0  0  0  0
  6 13  1  0  0  0  0
  7 12  1  0  0  0  0
  7 14  1  0  0  0  0
  8  9  1  0  0  0  0
  8 11  2  0  0  0  0
  8 16  1  0  0  0  0
  9 12  2  0  0  0  0
  9 19  1  0  0  0  0
 10 38  1  0  0  0  0
 11 33  1  0  0  0  0
 12 34  1  0  0  0  0
 13 29  2  0  0  0  0
 14 30  2  0  0  0  0
 15 24  1  0  0  0  0
 15 27  1  0  0  0  0
 15 31  2  0  0  0  0
 16 24  1  0  0  0  0
 17 19  1  0  0  0  0
 17 24  1  0  0  0  0
 18 20  1  0  0  0  0
 18 23  1  0  0  0  0
 19 39  1  0  0  0  0
 20 21  1  0  0  0  0
 20 28  1  0  0  0  0
 21 22  1  0  0  0  0
 21 35  1  0  0  0  0
 22 25  1  0  0  0  0
 22 32  1  0  0  0  0
 23 32  1  0  0  0  0
 23 39  1  0  0  0  0
 24 36  1  0  0  0  0
 26 38  1  0  0  0  0
 27 37  1  0  0  0  0
  1 40  1  0  0  0  0
  2 41  1  0  0  0  0
  3 42  1  0  0  0  0
 16 43  1  0  0  0  0
 16 44  1  0  0  0  0
 17 45  1  0  0  0  0
 17 46  1  0  0  0  0
 18 47  1  0  0  0  0
 18 48  1  0  0  0  0
 19 49  1  0  0  0  0
 20 50  1  0  0  0  0
 21 51  1  0  0  0  0
 22 52  1  0  0  0  0
 23 53  1  0  0  0  0
 25 54  1  0  0  0  0
 25 55  1  0  0  0  0
 25 56  1  0  0  0  0
 26 57  1  0  0  0  0
 26 58  1  0  0  0  0
 26 59  1  0  0  0  0
 27 60  1  0  0  0  0
 27 61  1  0  0  0  0
 28 62  1  0  0  0  0
 28 63  1  0  0  0  0
 33 64  1  0  0  0  0
 34 65  1  0  0  0  0
 35 66  1  0  0  0  0
 36 67  1  0  0  0  0
 37 68  1  0  0  0  0
M  END
> <Hybrid2>
-0.24805378913879395

> <Hybrid2>
0.522169

$$$$
CHEMBL129148
  -OEChem-02152218483D

 43 45  0     0  0  0  0  0  0999 V2000
    4.7786  -28.9735   -7.8718 C   0  0  0  0  0  0  0  0  0  0  0  0
   12.2077  -25.9898  -12.2583 C   0  0  0  0  0  0  0  0  0  0  0  0
    3.7744  -29.9240   -7.6886 C   0  0  0  0  0  0  0  0  0  0  0  0
   13.4035  -26.2375  -12.9322 C   0  0  0  0  0  0  0  0  0  0  0  0
    4.3967  -29.0296  -10.2568 C   0  0  0  0  0  0  0  0  0  0  0  0
   12.8515  -27.5598  -10.5385 C   0  0  0  0  0  0  0  0  0  0  0  0
    5.0898  -28.5262   -9.1559 C   0  0  0  0  0  0  0  0  0  0  0  0
   11.9317  -26.6509  -11.0614 C   0  0  0  0  0  0  0  0  0  0  0  0
    3.0814  -30.4274   -8.7895 C   0  0  0  0  0  0  0  0  0  0  0  0
   14.3234  -27.1464  -12.4093 C   0  0  0  0  0  0  0  0  0  0  0  0
    3.3925  -29.9802  -10.0736 C   0  0  0  0  0  0  0  0  0  0  0  0
   14.0474  -27.8076  -11.2125 C   0  0  0  0  0  0  0  0  0  0  0  0
    8.3715  -26.7179   -9.7515 C   0  0  0  0  0  0  0  0  0  0  0  0
    7.4041  -27.8390   -9.5748 C   0  0  0  0  0  0  0  0  0  0  0  0
    9.5788  -27.0952  -10.5414 C   0  0  0  0  0  0  0  0  0  0  0  0
    6.1178  -27.5495   -9.3432 C   0  0  0  0  0  0  0  0  0  0  0  0
   10.7064  -26.3947  -10.3692 C   0  0  0  0  0  0  0  0  0  0  0  0
    7.9631  -29.2292   -9.6360 C   0  0  0  0  0  0  0  0  0  0  0  0
    9.4235  -28.2279  -11.5117 C   0  0  0  0  0  0  0  0  0  0  0  0
    8.8163  -29.4845  -10.8817 C   0  0  0  0  0  0  0  0  0  0  0  0
    8.1920  -25.5972   -9.2930 O   0  0  0  0  0  0  0  0  0  0  0  0
    2.1029  -31.3554   -8.5970 O   0  0  0  0  0  0  0  0  0  0  0  0
   15.4875  -27.3794  -13.0773 O   0  0  0  0  0  0  0  0  0  0  0  0
    2.7227  -30.4656  -11.1560 O   0  0  0  0  0  0  0  0  0  0  0  0
   14.9381  -28.6980  -10.6931 O   0  0  0  0  0  0  0  0  0  0  0  0
    5.3094  -28.5895   -7.0040 H   0  0  0  0  0  0  0  0  0  0  0  0
   11.5008  -25.2778  -12.6775 H   0  0  0  0  0  0  0  0  0  0  0  0
    3.5371  -30.2684   -6.6857 H   0  0  0  0  0  0  0  0  0  0  0  0
   13.6123  -25.7192  -13.8642 H   0  0  0  0  0  0  0  0  0  0  0  0
    4.6325  -28.6860  -11.2616 H   0  0  0  0  0  0  0  0  0  0  0  0
   12.6446  -28.0795   -9.6055 H   0  0  0  0  0  0  0  0  0  0  0  0
    5.8395  -26.4990   -9.3243 H   0  0  0  0  0  0  0  0  0  0  0  0
   10.6889  -25.5960   -9.6322 H   0  0  0  0  0  0  0  0  0  0  0  0
    8.5751  -29.4053   -8.7354 H   0  0  0  0  0  0  0  0  0  0  0  0
    7.1549  -29.9788   -9.6081 H   0  0  0  0  0  0  0  0  0  0  0  0
    8.7954  -27.9290  -12.3667 H   0  0  0  0  0  0  0  0  0  0  0  0
   10.4135  -28.4746  -11.9297 H   0  0  0  0  0  0  0  0  0  0  0  0
    9.6371  -30.1925  -10.6206 H   0  0  0  0  0  0  0  0  0  0  0  0
    8.2099  -30.0300  -11.6450 H   0  0  0  0  0  0  0  0  0  0  0  0
    2.0127  -31.5564   -7.6522 H   0  0  0  0  0  0  0  0  0  0  0  0
   15.5234  -26.8435  -13.8852 H   0  0  0  0  0  0  0  0  0  0  0  0
    3.0578  -30.0558  -11.9689 H   0  0  0  0  0  0  0  0  0  0  0  0
   14.5973  -29.0679   -9.8637 H   0  0  0  0  0  0  0  0  0  0  0  0
  1  3  2  0  0  0  0
  1  7  1  0  0  0  0
  2  4  2  0  0  0  0
  2  8  1  0  0  0  0
  3  9  1  0  0  0  0
  4 10  1  0  0  0  0
  5  7  2  0  0  0  0
  5 11  1  0  0  0  0
  6  8  2  0  0  0  0
  6 12  1  0  0  0  0
  7 16  1  0  0  0  0
  8 17  1  0  0  0  0
  9 11  2  0  0  0  0
  9 22  1  0  0  0  0
 10 12  2  0  0  0  0
 10 23  1  0  0  0  0
 11 24  1  0  0  0  0
 12 25  1  0  0  0  0
 13 14  1  0  0  0  0
 13 15  1  0  0  0  0
 13 21  2  0  0  0  0
 14 16  2  0  0  0  0
 14 18  1  0  0  0  0
 15 17  2  0  0  0  0
 15 19  1  0  0  0  0
 18 20  1  0  0  0  0
 19 20  1  0  0  0  0
  1 26  1  0  0  0  0
  2 27  1  0  0  0  0
  3 28  1  0  0  0  0
  4 29  1  0  0  0  0
  5 30  1  0  0  0  0
  6 31  1  0  0  0  0
 16 32  1  0  0  0  0
 17 33  1  0  0  0  0
 18 34  1  0  0  0  0
 18 35  1  0  0  0  0
 19 36  1  0  0  0  0
 19 37  1  0  0  0  0
 20 38  1  0  0  0  0
 20 39  1  0  0  0  0
 22 40  1  0  0  0  0
 23 41  1  0  0  0  0
 24 42  1  0  0  0  0
 25 43  1  0  0  0  0
M  END
> <Hybrid2>
-6.958070755004883

> <Hybrid2>
-6.958071

$$$$
CHEMBL129148
  -OEChem-02152218483D

 43 45  0     0  0  0  0  0  0999 V2000
   12.1763  -26.6868  -11.3499 C   0  0  0  0  0  0  0  0  0  0  0  0
    3.9553  -28.5440   -7.8427 C   0  0  0  0  0  0  0  0  0  0  0  0
   13.4832  -27.0681  -11.6533 C   0  0  0  0  0  0  0  0  0  0  0  0
    2.9224  -29.4421   -7.5743 C   0  0  0  0  0  0  0  0  0  0  0  0
   12.4241  -27.6045   -9.1287 C   0  0  0  0  0  0  0  0  0  0  0  0
    4.0777  -29.3630  -10.1124 C   0  0  0  0  0  0  0  0  0  0  0  0
   11.6468  -26.9549  -10.0875 C   0  0  0  0  0  0  0  0  0  0  0  0
    4.5329  -28.5044   -9.1118 C   0  0  0  0  0  0  0  0  0  0  0  0
   14.2606  -27.7177  -10.6944 C   0  0  0  0  0  0  0  0  0  0  0  0
    2.4672  -30.3007   -8.5748 C   0  0  0  0  0  0  0  0  0  0  0  0
   13.7311  -27.9859   -9.4321 C   0  0  0  0  0  0  0  0  0  0  0  0
    3.0448  -30.2612   -9.8439 C   0  0  0  0  0  0  0  0  0  0  0  0
    7.8908  -26.7998   -9.5748 C   0  0  0  0  0  0  0  0  0  0  0  0
    9.2312  -27.3399   -9.9426 C   0  0  0  0  0  0  0  0  0  0  0  0
    6.8927  -27.8594   -9.2511 C   0  0  0  0  0  0  0  0  0  0  0  0
   10.3074  -26.5613   -9.7758 C   0  0  0  0  0  0  0  0  0  0  0  0
    5.5904  -27.5815   -9.3875 C   0  0  0  0  0  0  0  0  0  0  0  0
    9.2671  -28.7258  -10.5145 C   0  0  0  0  0  0  0  0  0  0  0  0
    7.4337  -29.1669   -8.7545 C   0  0  0  0  0  0  0  0  0  0  0  0
    8.5214  -29.7534   -9.6585 C   0  0  0  0  0  0  0  0  0  0  0  0
    7.6347  -25.6031   -9.5416 O   0  0  0  0  0  0  0  0  0  0  0  0
   15.5355  -28.0849  -11.0035 O   0  0  0  0  0  0  0  0  0  0  0  0
    1.4578  -31.1732   -8.2997 O   0  0  0  0  0  0  0  0  0  0  0  0
   14.4810  -28.6205   -8.4883 O   0  0  0  0  0  0  0  0  0  0  0  0
    2.6087  -31.0958  -10.8284 O   0  0  0  0  0  0  0  0  0  0  0  0
   11.5828  -26.1802  -12.1071 H   0  0  0  0  0  0  0  0  0  0  0  0
    4.2989  -27.8801   -7.0531 H   0  0  0  0  0  0  0  0  0  0  0  0
   13.8896  -26.8564  -12.6386 H   0  0  0  0  0  0  0  0  0  0  0  0
    2.4769  -29.4680   -6.5835 H   0  0  0  0  0  0  0  0  0  0  0  0
   12.0193  -27.8171   -8.1416 H   0  0  0  0  0  0  0  0  0  0  0  0
    4.5221  -29.3386  -11.1050 H   0  0  0  0  0  0  0  0  0  0  0  0
   10.1468  -25.5746   -9.3493 H   0  0  0  0  0  0  0  0  0  0  0  0
    5.3281  -26.5942   -9.7589 H   0  0  0  0  0  0  0  0  0  0  0  0
    8.8231  -28.7044  -11.5239 H   0  0  0  0  0  0  0  0  0  0  0  0
   10.3066  -29.0698  -10.6447 H   0  0  0  0  0  0  0  0  0  0  0  0
    7.8462  -29.0602   -7.7380 H   0  0  0  0  0  0  0  0  0  0  0  0
    6.6024  -29.8868   -8.6743 H   0  0  0  0  0  0  0  0  0  0  0  0
    8.0636  -30.5191  -10.3274 H   0  0  0  0  0  0  0  0  0  0  0  0
    9.2537  -30.3264   -9.0393 H   0  0  0  0  0  0  0  0  0  0  0  0
   15.7472  -27.8270  -11.9144 H   0  0  0  0  0  0  0  0  0  0  0  0
    1.1702  -31.0733   -7.3786 H   0  0  0  0  0  0  0  0  0  0  0  0
   13.9690  -28.7306   -7.6718 H   0  0  0  0  0  0  0  0  0  0  0  0
    3.1110  -30.9432  -11.6441 H   0  0  0  0  0  0  0  0  0  0  0  0
  1  3  2  0  0  0  0
  1  7  1  0  0  0  0
  2  4  2  0  0  0  0
  2  8  1  0  0  0  0
  3  9  1  0  0  0  0
  4 10  1  0  0  0  0
  5  7  2  0  0  0  0
  5 11  1  0  0  0  0
  6  8  2  0  0  0  0
  6 12  1  0  0  0  0
  7 16  1  0  0  0  0
  8 17  1  0  0  0  0
  9 11  2  0  0  0  0
  9 22  1  0  0  0  0
 10 12  2  0  0  0  0
 10 23  1  0  0  0  0
 11 24  1  0  0  0  0
 12 25  1  0  0  0  0
 13 14  1  0  0  0  0
 13 15  1  0  0  0  0
 13 21  2  0  0  0  0
 14 16  2  0  0  0  0
 14 18  1  0  0  0  0
 15 17  2  0  0  0  0
 15 19  1  0  0  0  0
 18 20  1  0  0  0  0
 19 20  1  0  0  0  0
  1 26  1  0  0  0  0
  2 27  1  0  0  0  0
  3 28  1  0  0  0  0
  4 29  1  0  0  0  0
  5 30  1  0  0  0  0
  6 31  1  0  0  0  0
 16 32  1  0  0  0  0
 17 33  1  0  0  0  0
 18 34  1  0  0  0  0
 18 35  1  0  0  0  0
 19 36  1  0  0  0  0
 19 37  1  0  0  0  0
 20 38  1  0  0  0  0
 20 39  1  0  0  0  0
 22 40  1  0  0  0  0
 23 41  1  0  0  0  0
 24 42  1  0  0  0  0
 25 43  1  0  0  0  0
M  END
> <Hybrid2>
-6.958070755004883

> <Hybrid2>
-6.053383

$$$$
CHEMBL175266
  -OEChem-02152218483D

 29 31  0     0  0  0  0  0  0999 V2000
   11.1557  -24.5410  -11.2543 C   0  0  0  0  0  0  0  0  0  0  0  0
   11.7765  -27.2476  -11.1597 C   0  0  0  0  0  0  0  0  0  0  0  0
   10.2025  -25.4320  -10.7309 C   0  0  0  0  0  0  0  0  0  0  0  0
   10.5392  -26.7871  -10.6948 C   0  0  0  0  0  0  0  0  0  0  0  0
   12.3941  -24.9949  -11.7205 C   0  0  0  0  0  0  0  0  0  0  0  0
   12.7049  -26.3489  -11.6730 C   0  0  0  0  0  0  0  0  0  0  0  0
    6.7028  -25.6396   -9.2164 C   0  0  0  0  0  0  0  0  0  0  0  0
    7.6343  -28.3284   -9.2537 C   0  0  0  0  0  0  0  0  0  0  0  0
    8.8724  -25.0054  -10.2212 C   0  0  0  0  0  0  0  0  0  0  0  0
    8.0348  -25.9592   -9.7394 C   0  0  0  0  0  0  0  0  0  0  0  0
    8.4443  -27.3709   -9.7265 C   0  0  0  0  0  0  0  0  0  0  0  0
    5.8719  -26.5793   -8.7373 C   0  0  0  0  0  0  0  0  0  0  0  0
    6.2890  -28.0048   -8.7234 C   0  0  0  0  0  0  0  0  0  0  0  0
    8.5788  -23.5242  -10.2910 C   0  0  0  0  0  0  0  0  0  0  0  0
    5.5533  -28.8858   -8.2913 O   0  0  0  0  0  0  0  0  0  0  0  0
    9.6899  -27.7438  -10.2072 O   0  0  0  0  0  0  0  0  0  0  0  0
   13.2890  -24.0968  -12.2203 O   0  0  0  0  0  0  0  0  0  0  0  0
   13.9063  -26.8037  -12.1228 O   0  0  0  0  0  0  0  0  0  0  0  0
    4.6245  -26.2517   -8.2518 O   0  0  0  0  0  0  0  0  0  0  0  0
   10.9564  -23.4737  -11.3114 H   0  0  0  0  0  0  0  0  0  0  0  0
   12.0128  -28.3084  -11.1191 H   0  0  0  0  0  0  0  0  0  0  0  0
    6.3525  -24.6151   -9.2059 H   0  0  0  0  0  0  0  0  0  0  0  0
    7.9349  -29.3708   -9.2432 H   0  0  0  0  0  0  0  0  0  0  0  0
    8.1121  -23.3032  -11.2439 H   0  0  0  0  0  0  0  0  0  0  0  0
    9.5092  -22.9762  -10.1945 H   0  0  0  0  0  0  0  0  0  0  0  0
    7.9123  -23.2594   -9.4780 H   0  0  0  0  0  0  0  0  0  0  0  0
   12.9202  -23.2005  -12.1828 H   0  0  0  0  0  0  0  0  0  0  0  0
   13.9616  -27.7670  -12.0186 H   0  0  0  0  0  0  0  0  0  0  0  0
    4.1697  -27.0460   -7.9519 H   0  0  0  0  0  0  0  0  0  0  0  0
  1  3  1  0  0  0  0
  1  5  2  0  0  0  0
  2  4  1  0  0  0  0
  2  6  2  0  0  0  0
  3  4  2  0  0  0  0
  3  9  1  0  0  0  0
  4 16  1  0  0  0  0
  5  6  1  0  0  0  0
  5 17  1  0  0  0  0
  6 18  1  0  0  0  0
  7 10  1  0  0  0  0
  7 12  2  0  0  0  0
  8 11  2  0  0  0  0
  8 13  1  0  0  0  0
  9 10  2  0  0  0  0
  9 14  1  0  0  0  0
 10 11  1  0  0  0  0
 11 16  1  0  0  0  0
 12 13  1  0  0  0  0
 12 19  1  0  0  0  0
 13 15  2  0  0  0  0
  1 20  1  0  0  0  0
  2 21  1  0  0  0  0
  7 22  1  0  0  0  0
  8 23  1  0  0  0  0
 14 24  1  0  0  0  0
 14 25  1  0  0  0  0
 14 26  1  0  0  0  0
 17 27  1  0  0  0  0
 18 28  1  0  0  0  0
 19 29  1  0  0  0  0
M  END
> <Hybrid2>
-6.571163177490234

> <Hybrid2>
-6.571163

$$$$
CHEMBL175266
  -OEChem-02152218483D

 29 31  0     0  0  0  0  0  0999 V2000
   11.2527  -24.7148  -11.1265 C   0  0  0  0  0  0  0  0  0  0  0  0
   11.8736  -27.4214  -11.0319 C   0  0  0  0  0  0  0  0  0  0  0  0
   10.2996  -25.6058  -10.6031 C   0  0  0  0  0  0  0  0  0  0  0  0
   10.6363  -26.9609  -10.5670 C   0  0  0  0  0  0  0  0  0  0  0  0
   12.4911  -25.1686  -11.5926 C   0  0  0  0  0  0  0  0  0  0  0  0
   12.8019  -26.5226  -11.5452 C   0  0  0  0  0  0  0  0  0  0  0  0
    6.7998  -25.8134   -9.0885 C   0  0  0  0  0  0  0  0  0  0  0  0
    7.7313  -28.5021   -9.1259 C   0  0  0  0  0  0  0  0  0  0  0  0
    8.9694  -25.1791  -10.0934 C   0  0  0  0  0  0  0  0  0  0  0  0
    8.1319  -26.1330   -9.6116 C   0  0  0  0  0  0  0  0  0  0  0  0
    8.5413  -27.5447   -9.5986 C   0  0  0  0  0  0  0  0  0  0  0  0
    5.9689  -26.7530   -8.6095 C   0  0  0  0  0  0  0  0  0  0  0  0
    6.3860  -28.1785   -8.5955 C   0  0  0  0  0  0  0  0  0  0  0  0
    8.6758  -23.6979  -10.1632 C   0  0  0  0  0  0  0  0  0  0  0  0
    5.6504  -29.0596   -8.1635 O   0  0  0  0  0  0  0  0  0  0  0  0
    9.7869  -27.9175  -10.0794 O   0  0  0  0  0  0  0  0  0  0  0  0
   13.3860  -24.2706  -12.0925 O   0  0  0  0  0  0  0  0  0  0  0  0
   14.0034  -26.9775  -11.9950 O   0  0  0  0  0  0  0  0  0  0  0  0
    4.7215  -26.4254   -8.1240 O   0  0  0  0  0  0  0  0  0  0  0  0
   11.0535  -23.6474  -11.1836 H   0  0  0  0  0  0  0  0  0  0  0  0
   12.1098  -28.4821  -10.9913 H   0  0  0  0  0  0  0  0  0  0  0  0
    6.4496  -24.7889   -9.0781 H   0  0  0  0  0  0  0  0  0  0  0  0
    8.0319  -29.5446   -9.1154 H   0  0  0  0  0  0  0  0  0  0  0  0
    8.2091  -23.4770  -11.1161 H   0  0  0  0  0  0  0  0  0  0  0  0
    9.6062  -23.1500  -10.0667 H   0  0  0  0  0  0  0  0  0  0  0  0
    8.0093  -23.4332   -9.3502 H   0  0  0  0  0  0  0  0  0  0  0  0
   13.0172  -23.3743  -12.0550 H   0  0  0  0  0  0  0  0  0  0  0  0
   14.0586  -27.9408  -11.8907 H   0  0  0  0  0  0  0  0  0  0  0  0
    4.2667  -27.2197   -7.8241 H   0  0  0  0  0  0  0  0  0  0  0  0
  1  3  1  0  0  0  0
  1  5  2  0  0  0  0
  2  4  1  0  0  0  0
  2  6  2  0  0  0  0
  3  4  2  0  0  0  0
  3  9  1  0  0  0  0
  4 16  1  0  0  0  0
  5  6  1  0  0  0  0
  5 17  1  0  0  0  0
  6 18  1  0  0  0  0
  7 10  1  0  0  0  0
  7 12  2  0  0  0  0
  8 11  2  0  0  0  0
  8 13  1  0  0  0  0
  9 10  2  0  0  0  0
  9 14  1  0  0  0  0
 10 11  1  0  0  0  0
 11 16  1  0  0  0  0
 12 13  1  0  0  0  0
 12 19  1  0  0  0  0
 13 15  2  0  0  0  0
  1 20  1  0  0  0  0
  2 21  1  0  0  0  0
  7 22  1  0  0  0  0
  8 23  1  0  0  0  0
 14 24  1  0  0  0  0
 14 25  1  0  0  0  0
 14 26  1  0  0  0  0
 17 27  1  0  0  0  0
 18 28  1  0  0  0  0
 19 29  1  0  0  0  0
M  END
> <Hybrid2>
-6.571163177490234

> <Hybrid2>
-6.370286

$$$$
CHEMBL190009
  -OEChem-02152218483D

 45 46  0     0  0  0  0  0  0999 V2000
   11.9594  -27.2550  -10.8644 C   0  0  0  0  0  0  0  0  0  0  0  0
   11.2248  -25.2015  -11.9037 C   0  0  0  0  0  0  0  0  0  0  0  0
    1.9064  -31.3926   -8.6870 C   0  0  0  0  0  0  0  0  0  0  0  0
    4.0909  -32.0920   -9.4456 C   0  0  0  0  0  0  0  0  0  0  0  0
   11.0428  -26.2075  -10.9548 C   0  0  0  0  0  0  0  0  0  0  0  0
    3.2628  -31.1263   -8.8735 C   0  0  0  0  0  0  0  0  0  0  0  0
   13.0582  -27.2963  -11.7227 C   0  0  0  0  0  0  0  0  0  0  0  0
   12.3236  -25.2428  -12.7621 C   0  0  0  0  0  0  0  0  0  0  0  0
    1.3780  -32.6246   -9.0725 C   0  0  0  0  0  0  0  0  0  0  0  0
    3.5625  -33.3241   -9.8312 C   0  0  0  0  0  0  0  0  0  0  0  0
   13.2403  -26.2903  -12.6715 C   0  0  0  0  0  0  0  0  0  0  0  0
    2.2061  -33.5903   -9.6447 C   0  0  0  0  0  0  0  0  0  0  0  0
    9.8832  -26.1638  -10.0472 C   0  0  0  0  0  0  0  0  0  0  0  0
    3.8205  -29.8253   -8.4650 C   0  0  0  0  0  0  0  0  0  0  0  0
    8.6909  -25.6395  -10.3569 C   0  0  0  0  0  0  0  0  0  0  0  0
    4.8492  -29.2136   -9.0649 C   0  0  0  0  0  0  0  0  0  0  0  0
    6.6908  -27.2678   -9.5077 C   0  0  0  0  0  0  0  0  0  0  0  0
    6.4900  -24.6590   -9.4043 O   0  0  0  0  0  0  0  0  0  0  0  0
    8.0956  -25.8163   -7.8412 O   0  0  0  0  0  0  0  0  0  0  0  0
    4.2745  -26.7207   -8.6597 O   0  0  0  0  0  0  0  0  0  0  0  0
    5.8774  -27.8793   -7.0952 O   0  0  0  0  0  0  0  0  0  0  0  0
   13.9458  -28.3249  -11.6239 O   0  0  0  0  0  0  0  0  0  0  0  0
   12.4902  -24.2538  -13.6838 O   0  0  0  0  0  0  0  0  0  0  0  0
    0.0517  -32.8718   -8.8850 O   0  0  0  0  0  0  0  0  0  0  0  0
    4.3821  -34.2588  -10.3881 O   0  0  0  0  0  0  0  0  0  0  0  0
   14.3143  -26.3306  -13.5104 O   0  0  0  0  0  0  0  0  0  0  0  0
    1.6897  -34.7946  -10.0214 O   0  0  0  0  0  0  0  0  0  0  0  0
    7.4613  -25.7036   -9.1409 S   0  0  0  0  0  0  0  0  0  0  0  0
    5.3364  -27.6808   -8.4264 S   0  0  0  0  0  0  0  0  0  0  0  0
   11.8249  -28.0436  -10.1272 H   0  0  0  0  0  0  0  0  0  0  0  0
   10.5147  -24.3810  -11.9806 H   0  0  0  0  0  0  0  0  0  0  0  0
    1.2536  -30.6450   -8.2415 H   0  0  0  0  0  0  0  0  0  0  0  0
    5.1499  -31.8924   -9.5943 H   0  0  0  0  0  0  0  0  0  0  0  0
   10.0384  -26.6147   -9.0691 H   0  0  0  0  0  0  0  0  0  0  0  0
    3.3245  -29.3487   -7.6218 H   0  0  0  0  0  0  0  0  0  0  0  0
    8.4556  -25.1935  -11.3146 H   0  0  0  0  0  0  0  0  0  0  0  0
    5.3777  -29.6152   -9.9198 H   0  0  0  0  0  0  0  0  0  0  0  0
    7.4497  -28.0493   -9.4132 H   0  0  0  0  0  0  0  0  0  0  0  0
    6.3060  -27.2236  -10.5302 H   0  0  0  0  0  0  0  0  0  0  0  0
   13.6755  -28.9345  -10.9194 H   0  0  0  0  0  0  0  0  0  0  0  0
   11.7708  -23.6066  -13.6149 H   0  0  0  0  0  0  0  0  0  0  0  0
   -0.3786  -32.1028   -8.4794 H   0  0  0  0  0  0  0  0  0  0  0  0
    5.2885  -33.9181  -10.4462 H   0  0  0  0  0  0  0  0  0  0  0  0
   14.8543  -27.1143  -13.3242 H   0  0  0  0  0  0  0  0  0  0  0  0
    0.7400  -34.8261   -9.8278 H   0  0  0  0  0  0  0  0  0  0  0  0
  1  5  1  0  0  0  0
  1  7  2  0  0  0  0
  2  5  2  0  0  0  0
  2  8  1  0  0  0  0
  3  6  2  0  0  0  0
  3  9  1  0  0  0  0
  4  6  1  0  0  0  0
  4 10  2  0  0  0  0
  5 13  1  0  0  0  0
  6 14  1  0  0  0  0
  7 11  1  0  0  0  0
  7 22  1  0  0  0  0
  8 11  2  0  0  0  0
  8 23  1  0  0  0  0
  9 12  2  0  0  0  0
  9 24  1  0  0  0  0
 10 12  1  0  0  0  0
 10 25  1  0  0  0  0
 11 26  1  0  0  0  0
 12 27  1  0  0  0  0
 13 15  2  0  0  0  0
 14 16  2  0  0  0  0
 15 28  1  0  0  0  0
 16 29  1  0  0  0  0
 17 28  1  0  0  0  0
 17 29  1  0  0  0  0
 18 28  2  0  0  0  0
 19 28  2  0  0  0  0
 20 29  2  0  0  0  0
 21 29  2  0  0  0  0
  1 30  1  0  0  0  0
  2 31  1  0  0  0  0
  3 32  1  0  0  0  0
  4 33  1  0  0  0  0
 13 34  1  0  0  0  0
 14 35  1  0  0  0  0
 15 36  1  0  0  0  0
 16 37  1  0  0  0  0
 17 38  1  0  0  0  0
 17 39  1  0  0  0  0
 22 40  1  0  0  0  0
 23 41  1  0  0  0  0
 24 42  1  0  0  0  0
 25 43  1  0  0  0  0
 26 44  1  0  0  0  0
 27 45  1  0  0  0  0
M  END
> <Hybrid2>
-5.271596908569336

> <Hybrid2>
-5.271597

$$$$
CHEMBL190009
  -OEChem-02152218483D

 45 46  0     0  0  0  0  0  0999 V2000
    1.7433  -31.5451   -8.9713 C   0  0  0  0  0  0  0  0  0  0  0  0
    3.8364  -32.7508   -8.9280 C   0  0  0  0  0  0  0  0  0  0  0  0
   11.9652  -26.2950  -12.2179 C   0  0  0  0  0  0  0  0  0  0  0  0
   12.9169  -27.3134  -10.2447 C   0  0  0  0  0  0  0  0  0  0  0  0
    3.1284  -31.5551   -8.8076 C   0  0  0  0  0  0  0  0  0  0  0  0
   11.8350  -26.7215  -10.8963 C   0  0  0  0  0  0  0  0  0  0  0  0
    1.0660  -32.7311   -9.2554 C   0  0  0  0  0  0  0  0  0  0  0  0
    3.1592  -33.9368   -9.2122 C   0  0  0  0  0  0  0  0  0  0  0  0
   13.1774  -26.4604  -12.8880 C   0  0  0  0  0  0  0  0  0  0  0  0
   14.1292  -27.4788  -10.9147 C   0  0  0  0  0  0  0  0  0  0  0  0
    1.7740  -33.9268   -9.3759 C   0  0  0  0  0  0  0  0  0  0  0  0
   14.2593  -27.0523  -12.2364 C   0  0  0  0  0  0  0  0  0  0  0  0
    3.8429  -30.3024   -8.5064 C   0  0  0  0  0  0  0  0  0  0  0  0
   10.5541  -26.5475  -10.1896 C   0  0  0  0  0  0  0  0  0  0  0  0
    5.0959  -30.0273   -8.8895 C   0  0  0  0  0  0  0  0  0  0  0  0
    9.8328  -27.5436   -9.6605 C   0  0  0  0  0  0  0  0  0  0  0  0
    7.3731  -28.5700   -9.1408 C   0  0  0  0  0  0  0  0  0  0  0  0
    5.8810  -28.4469   -6.9924 O   0  0  0  0  0  0  0  0  0  0  0  0
    5.0062  -27.4495   -9.1374 O   0  0  0  0  0  0  0  0  0  0  0  0
    8.6132  -27.0151   -7.4374 O   0  0  0  0  0  0  0  0  0  0  0  0
    7.7410  -26.0155   -9.5821 O   0  0  0  0  0  0  0  0  0  0  0  0
   -0.2868  -32.7075   -9.4132 O   0  0  0  0  0  0  0  0  0  0  0  0
    3.8623  -35.0979   -9.3265 O   0  0  0  0  0  0  0  0  0  0  0  0
   13.2913  -26.0394  -14.1784 O   0  0  0  0  0  0  0  0  0  0  0  0
   15.1779  -28.0590  -10.2672 O   0  0  0  0  0  0  0  0  0  0  0  0
    1.1120  -35.0860   -9.6535 O   0  0  0  0  0  0  0  0  0  0  0  0
   15.4441  -27.2142  -12.8913 O   0  0  0  0  0  0  0  0  0  0  0  0
    5.7390  -28.4862   -8.4355 S   0  0  0  0  0  0  0  0  0  0  0  0
    8.3593  -27.1125   -8.8622 S   0  0  0  0  0  0  0  0  0  0  0  0
    1.1835  -30.6169   -8.8791 H   0  0  0  0  0  0  0  0  0  0  0  0
    4.9168  -32.7672   -8.8015 H   0  0  0  0  0  0  0  0  0  0  0  0
   11.1264  -25.8324  -12.7335 H   0  0  0  0  0  0  0  0  0  0  0  0
   12.8236  -27.6490   -9.2141 H   0  0  0  0  0  0  0  0  0  0  0  0
    3.2742  -29.5638   -7.9449 H   0  0  0  0  0  0  0  0  0  0  0  0
   10.2087  -25.5199  -10.0950 H   0  0  0  0  0  0  0  0  0  0  0  0
    5.7148  -30.7021   -9.4666 H   0  0  0  0  0  0  0  0  0  0  0  0
   10.1218  -28.5860   -9.6965 H   0  0  0  0  0  0  0  0  0  0  0  0
    7.2691  -28.7068  -10.2206 H   0  0  0  0  0  0  0  0  0  0  0  0
    7.8922  -29.4208   -8.6910 H   0  0  0  0  0  0  0  0  0  0  0  0
   -0.6220  -31.8044   -9.2986 H   0  0  0  0  0  0  0  0  0  0  0  0
    4.8076  -34.9327   -9.1849 H   0  0  0  0  0  0  0  0  0  0  0  0
   12.4541  -25.6531  -14.4802 H   0  0  0  0  0  0  0  0  0  0  0  0
   14.9229  -28.2965   -9.3618 H   0  0  0  0  0  0  0  0  0  0  0  0
    0.1611  -34.9157   -9.7377 H   0  0  0  0  0  0  0  0  0  0  0  0
   15.3757  -26.8701  -13.7954 H   0  0  0  0  0  0  0  0  0  0  0  0
  1  5  1  0  0  0  0
  1  7  2  0  0  0  0
  2  5  2  0  0  0  0
  2  8  1  0  0  0  0
  3  6  2  0  0  0  0
  3  9  1  0  0  0  0
  4  6  1  0  0  0  0
  4 10  2  0  0  0  0
  5 13  1  0  0  0  0
  6 14  1  0  0  0  0
  7 11  1  0  0  0  0
  7 22  1  0  0  0  0
  8 11  2  0  0  0  0
  8 23  1  0  0  0  0
  9 12  2  0  0  0  0
  9 24  1  0  0  0  0
 10 12  1  0  0  0  0
 10 25  1  0  0  0  0
 11 26  1  0  0  0  0
 12 27  1  0  0  0  0
 13 15  2  0  0  0  0
 14 16  2  0  0  0  0
 15 28  1  0  0  0  0
 16 29  1  0  0  0  0
 17 28  1  0  0  0  0
 17 29  1  0  0  0  0
 18 28  2  0  0  0  0
 19 28  2  0  0  0  0
 20 29  2  0  0  0  0
 21 29  2  0  0  0  0
  1 30  1  0  0  0  0
  2 31  1  0  0  0  0
  3 32  1  0  0  0  0
  4 33  1  0  0  0  0
 13 34  1  0  0  0  0
 14 35  1  0  0  0  0
 15 36  1  0  0  0  0
 16 37  1  0  0  0  0
 17 38  1  0  0  0  0
 17 39  1  0  0  0  0
 22 40  1  0  0  0  0
 23 41  1  0  0  0  0
 24 42  1  0  0  0  0
 25 43  1  0  0  0  0
 26 44  1  0  0  0  0
 27 45  1  0  0  0  0
M  END
> <Hybrid2>
-5.271596908569336

> <Hybrid2>
-4.886370

$$$$
CHEMBL357646
  -OEChem-02152218483D

 46 47  0     1  0  0  0  0  0999 V2000
   12.7030  -27.8007  -10.3955 C   0  0  0  0  0  0  0  0  0  0  0  0
   11.6722  -25.9469  -11.5522 C   0  0  0  0  0  0  0  0  0  0  0  0
    4.7126  -30.6886   -9.5491 C   0  0  0  0  0  0  0  0  0  0  0  0
    4.4455  -28.7825   -8.0889 C   0  0  0  0  0  0  0  0  0  0  0  0
   11.5779  -27.0233  -10.6700 C   0  0  0  0  0  0  0  0  0  0  0  0
    5.1278  -29.4280   -9.1202 C   0  0  0  0  0  0  0  0  0  0  0  0
   13.9225  -27.5016  -11.0031 C   0  0  0  0  0  0  0  0  0  0  0  0
   12.8916  -25.6479  -12.1598 C   0  0  0  0  0  0  0  0  0  0  0  0
    3.6150  -31.3038   -8.9468 C   0  0  0  0  0  0  0  0  0  0  0  0
    3.3479  -29.3976   -7.4866 C   0  0  0  0  0  0  0  0  0  0  0  0
   14.0168  -26.4252  -11.8852 C   0  0  0  0  0  0  0  0  0  0  0  0
    2.9327  -30.6583   -7.9156 C   0  0  0  0  0  0  0  0  0  0  0  0
   10.2801  -27.3392  -10.0216 C   0  0  0  0  0  0  0  0  0  0  0  0
    6.2942  -28.7713   -9.7625 C   0  0  0  0  0  0  0  0  0  0  0  0
    7.8950  -25.1839   -8.3838 C   0  0  0  0  0  0  0  0  0  0  0  0
    6.6227  -25.4223  -10.9393 C   0  0  0  0  0  0  0  0  0  0  0  0
    8.2669  -26.3849   -9.2394 C   0  0  1  0  0  0  0  0  0  0  0  0
    7.2225  -26.6727  -10.3191 C   0  0  1  0  0  0  0  0  0  0  0  0
    9.9529  -28.4690   -9.6932 O   0  0  0  0  0  0  0  0  0  0  0  0
    7.2289  -29.3906  -10.2466 O   0  0  0  0  0  0  0  0  0  0  0  0
    8.5838  -24.1739   -8.3023 O   0  0  0  0  0  0  0  0  0  0  0  0
    5.4444  -25.1001  -10.8610 O   0  0  0  0  0  0  0  0  0  0  0  0
   15.0140  -28.2683  -10.7259 O   0  0  0  0  0  0  0  0  0  0  0  0
   12.9703  -24.5934  -13.0189 O   0  0  0  0  0  0  0  0  0  0  0  0
    3.2194  -32.5348   -9.3756 O   0  0  0  0  0  0  0  0  0  0  0  0
    2.6899  -28.7560   -6.4809 O   0  0  0  0  0  0  0  0  0  0  0  0
   15.2087  -26.1341  -12.4798 O   0  0  0  0  0  0  0  0  0  0  0  0
    1.8607  -31.2605   -7.3265 O   0  0  0  0  0  0  0  0  0  0  0  0
    6.7408  -25.3469   -7.6923 O   0  0  0  0  0  0  0  0  0  0  0  0
    7.5422  -24.6973  -11.6266 O   0  0  0  0  0  0  0  0  0  0  0  0
    9.5327  -26.2112   -9.8523 O   0  0  0  0  0  0  0  0  0  0  0  0
    6.1629  -27.4167   -9.7300 O   0  0  0  0  0  0  0  0  0  0  0  0
   12.6349  -28.6399   -9.7071 H   0  0  0  0  0  0  0  0  0  0  0  0
   10.7973  -25.3385  -11.7698 H   0  0  0  0  0  0  0  0  0  0  0  0
    5.2403  -31.1952  -10.3539 H   0  0  0  0  0  0  0  0  0  0  0  0
    4.7661  -27.7998   -7.7507 H   0  0  0  0  0  0  0  0  0  0  0  0
    8.3543  -27.2429   -8.5617 H   0  0  0  0  0  0  0  0  0  0  0  0
    7.6492  -27.2827  -11.1239 H   0  0  0  0  0  0  0  0  0  0  0  0
   14.7800  -28.9698  -10.0980 H   0  0  0  0  0  0  0  0  0  0  0  0
   12.1057  -24.1610  -13.0986 H   0  0  0  0  0  0  0  0  0  0  0  0
    3.7953  -32.8406  -10.0939 H   0  0  0  0  0  0  0  0  0  0  0  0
    3.1025  -27.8957   -6.3059 H   0  0  0  0  0  0  0  0  0  0  0  0
   15.1127  -25.3639  -13.0611 H   0  0  0  0  0  0  0  0  0  0  0  0
    1.4969  -30.6897   -6.6321 H   0  0  0  0  0  0  0  0  0  0  0  0
    6.4987  -24.5889   -7.1186 H   0  0  0  0  0  0  0  0  0  0  0  0
    7.1919  -23.8898  -12.0598 H   0  0  0  0  0  0  0  0  0  0  0  0
  1  5  1  0  0  0  0
  1  7  2  0  0  0  0
  2  5  2  0  0  0  0
  2  8  1  0  0  0  0
  3  6  1  0  0  0  0
  3  9  2  0  0  0  0
  4  6  2  0  0  0  0
  4 10  1  0  0  0  0
  5 13  1  0  0  0  0
  6 14  1  0  0  0  0
  7 11  1  0  0  0  0
  7 23  1  0  0  0  0
  8 11  2  0  0  0  0
  8 24  1  0  0  0  0
  9 12  1  0  0  0  0
  9 25  1  0  0  0  0
 10 12  2  0  0  0  0
 10 26  1  0  0  0  0
 11 27  1  0  0  0  0
 12 28  1  0  0  0  0
 13 19  2  0  0  0  0
 13 31  1  0  0  0  0
 14 20  2  0  0  0  0
 14 32  1  0  0  0  0
 15 17  1  0  0  0  0
 15 21  2  0  0  0  0
 15 29  1  0  0  0  0
 16 18  1  0  0  0  0
 16 22  2  0  0  0  0
 16 30  1  0  0  0  0
 17 18  1  0  0  0  0
 17 31  1  0  0  0  0
 18 32  1  0  0  0  0
  1 33  1  0  0  0  0
  2 34  1  0  0  0  0
  3 35  1  0  0  0  0
  4 36  1  0  0  0  0
 17 37  1  0  0  0  0
 18 38  1  0  0  0  0
 23 39  1  0  0  0  0
 24 40  1  0  0  0  0
 25 41  1  0  0  0  0
 26 42  1  0  0  0  0
 27 43  1  0  0  0  0
 28 44  1  0  0  0  0
 29 45  1  0  0  0  0
 30 46  1  0  0  0  0
M  END
> <Hybrid2>
-3.0814123153686523

> <Hybrid2>
-3.081412

$$$$
CHEMBL357646
  -OEChem-02152218483D

 46 47  0     1  0  0  0  0  0999 V2000
   13.1737  -25.5117  -12.2885 C   0  0  0  0  0  0  0  0  0  0  0  0
   11.7290  -26.9250  -10.9648 C   0  0  0  0  0  0  0  0  0  0  0  0
    5.3492  -28.2946   -8.1974 C   0  0  0  0  0  0  0  0  0  0  0  0
    7.5023  -28.5059   -9.2727 C   0  0  0  0  0  0  0  0  0  0  0  0
   11.9324  -25.7585  -11.7022 C   0  0  0  0  0  0  0  0  0  0  0  0
    6.4356  -27.7124   -8.8503 C   0  0  0  0  0  0  0  0  0  0  0  0
   14.2116  -26.4313  -12.1375 C   0  0  0  0  0  0  0  0  0  0  0  0
   12.7669  -27.8446  -10.8138 C   0  0  0  0  0  0  0  0  0  0  0  0
    5.3294  -29.6702   -7.9668 C   0  0  0  0  0  0  0  0  0  0  0  0
    7.4824  -29.8814   -9.0422 C   0  0  0  0  0  0  0  0  0  0  0  0
   14.0082  -27.5977  -11.4001 C   0  0  0  0  0  0  0  0  0  0  0  0
    6.3960  -30.4636   -8.3893 C   0  0  0  0  0  0  0  0  0  0  0  0
   10.8263  -24.7816  -11.8647 C   0  0  0  0  0  0  0  0  0  0  0  0
    6.4589  -26.2480   -9.0936 C   0  0  0  0  0  0  0  0  0  0  0  0
    7.7582  -24.6354  -12.5575 C   0  0  0  0  0  0  0  0  0  0  0  0
    8.3624  -23.8316   -8.8137 C   0  0  0  0  0  0  0  0  0  0  0  0
    8.5725  -24.3552  -11.3040 C   0  0  1  0  0  0  0  0  0  0  0  0
    7.7407  -24.4991  -10.0285 C   0  0  1  0  0  0  0  0  0  0  0  0
   10.9371  -23.7436  -12.4985 O   0  0  0  0  0  0  0  0  0  0  0  0
    5.5598  -25.4972   -8.7480 O   0  0  0  0  0  0  0  0  0  0  0  0
    8.0226  -25.5339  -13.3473 O   0  0  0  0  0  0  0  0  0  0  0  0
    8.7387  -24.4211   -7.8090 O   0  0  0  0  0  0  0  0  0  0  0  0
   15.4189  -26.1785  -12.7158 O   0  0  0  0  0  0  0  0  0  0  0  0
   12.5548  -28.9803  -10.0916 O   0  0  0  0  0  0  0  0  0  0  0  0
    4.2625  -30.2261   -7.3275 O   0  0  0  0  0  0  0  0  0  0  0  0
    8.5309  -30.6449   -9.4594 O   0  0  0  0  0  0  0  0  0  0  0  0
   15.0234  -28.4957  -11.2519 O   0  0  0  0  0  0  0  0  0  0  0  0
    6.3755  -31.8082   -8.1648 O   0  0  0  0  0  0  0  0  0  0  0  0
    6.7258  -23.7758  -12.7372 O   0  0  0  0  0  0  0  0  0  0  0  0
    8.4350  -22.4826   -8.9488 O   0  0  0  0  0  0  0  0  0  0  0  0
    9.7022  -25.2065  -11.2201 O   0  0  0  0  0  0  0  0  0  0  0  0
    7.6010  -25.8848   -9.7392 O   0  0  0  0  0  0  0  0  0  0  0  0
   13.3367  -24.6045  -12.8658 H   0  0  0  0  0  0  0  0  0  0  0  0
   10.7630  -27.1213  -10.5052 H   0  0  0  0  0  0  0  0  0  0  0  0
    4.5159  -27.6799   -7.8646 H   0  0  0  0  0  0  0  0  0  0  0  0
    8.3512  -28.0564   -9.7829 H   0  0  0  0  0  0  0  0  0  0  0  0
    8.9505  -23.3294  -11.3934 H   0  0  0  0  0  0  0  0  0  0  0  0
    6.7349  -24.0860  -10.1684 H   0  0  0  0  0  0  0  0  0  0  0  0
   15.3931  -25.3321  -13.1890 H   0  0  0  0  0  0  0  0  0  0  0  0
   11.6451  -28.9983   -9.7552 H   0  0  0  0  0  0  0  0  0  0  0  0
    3.6131  -29.5416   -7.1021 H   0  0  0  0  0  0  0  0  0  0  0  0
    9.1985  -30.0897   -9.8918 H   0  0  0  0  0  0  0  0  0  0  0  0
   14.7278  -29.2487  -10.7171 H   0  0  0  0  0  0  0  0  0  0  0  0
    7.1820  -32.2175   -8.5145 H   0  0  0  0  0  0  0  0  0  0  0  0
    6.2041  -23.9303  -13.5534 H   0  0  0  0  0  0  0  0  0  0  0  0
    8.8137  -22.0097   -8.1772 H   0  0  0  0  0  0  0  0  0  0  0  0
  1  5  1  0  0  0  0
  1  7  2  0  0  0  0
  2  5  2  0  0  0  0
  2  8  1  0  0  0  0
  3  6  1  0  0  0  0
  3  9  2  0  0  0  0
  4  6  2  0  0  0  0
  4 10  1  0  0  0  0
  5 13  1  0  0  0  0
  6 14  1  0  0  0  0
  7 11  1  0  0  0  0
  7 23  1  0  0  0  0
  8 11  2  0  0  0  0
  8 24  1  0  0  0  0
  9 12  1  0  0  0  0
  9 25  1  0  0  0  0
 10 12  2  0  0  0  0
 10 26  1  0  0  0  0
 11 27  1  0  0  0  0
 12 28  1  0  0  0  0
 13 19  2  0  0  0  0
 13 31  1  0  0  0  0
 14 20  2  0  0  0  0
 14 32  1  0  0  0  0
 15 17  1  0  0  0  0
 15 21  2  0  0  0  0
 15 29  1  0  0  0  0
 16 18  1  0  0  0  0
 16 22  2  0  0  0  0
 16 30  1  0  0  0  0
 17 18  1  0  0  0  0
 17 31  1  0  0  0  0
 18 32  1  0  0  0  0
  1 33  1  0  0  0  0
  2 34  1  0  0  0  0
  3 35  1  0  0  0  0
  4 36  1  0  0  0  0
 17 37  1  0  0  0  0
 18 38  1  0  0  0  0
 23 39  1  0  0  0  0
 24 40  1  0  0  0  0
 25 41  1  0  0  0  0
 26 42  1  0  0  0  0
 27 43  1  0  0  0  0
 28 44  1  0  0  0  0
 29 45  1  0  0  0  0
 30 46  1  0  0  0  0
M  END
> <Hybrid2>
-3.0814123153686523

> <Hybrid2>
-2.877453

$$$$
C06184368
  -OEChem-02152218483D

 42 46  0     1  0  0  0  0  0999 V2000
    5.8130  -28.4494   -9.3375 C   0  0  0  0  0  0  0  0  0  0  0  0
    6.4656  -27.2168   -9.5287 C   0  0  0  0  0  0  0  0  0  0  0  0
    4.4766  -28.1324   -9.3277 C   0  0  0  0  0  0  0  0  0  0  0  0
   13.7001  -25.8202  -12.4628 C   0  0  0  0  0  0  0  0  0  0  0  0
   13.8363  -25.2697  -11.2336 C   0  0  0  0  0  0  0  0  0  0  0  0
   10.5430  -27.4107  -12.0989 C   0  0  0  0  0  0  0  0  0  0  0  0
   10.7814  -27.0950   -9.7542 C   0  0  0  0  0  0  0  0  0  0  0  0
    7.9107  -26.9566   -9.6185 C   0  0  0  0  0  0  0  0  0  0  0  0
   15.5395  -27.9378  -10.8145 C   0  0  0  0  0  0  0  0  0  0  0  0
   14.4438  -28.8590  -10.3281 C   0  0  0  0  0  0  0  0  0  0  0  0
   13.3772  -27.3012  -12.2777 C   0  0  2  0  0  0  0  0  0  0  0  0
   13.4801  -26.3586  -10.1989 C   0  0  1  0  0  0  0  0  0  0  0  0
   11.9804  -27.5182  -11.6915 C   0  0  1  0  0  0  0  0  0  0  0  0
   11.9719  -26.5335  -10.4771 C   0  0  1  0  0  0  0  0  0  0  0  0
   14.0973  -27.5291  -10.9368 C   0  0  0  0  0  0  0  0  0  0  0  0
    3.2741  -28.9729   -9.1689 C   0  0  0  0  0  0  0  0  0  0  0  0
    3.2198  -25.9694   -9.5688 C   0  0  0  0  0  0  0  0  0  0  0  0
    5.6140  -26.1932   -9.6332 N   0  0  0  0  0  0  0  0  0  0  0  0
    4.4125  -26.7819   -9.5071 N   0  0  0  0  0  0  0  0  0  0  0  0
    9.9237  -27.3706  -10.8358 N   0  0  0  0  0  0  0  0  0  0  0  0
    8.5902  -27.5831  -10.6717 N   0  0  0  0  0  0  0  0  0  0  0  0
   10.0747  -27.4594  -13.2187 O   0  0  0  0  0  0  0  0  0  0  0  0
   10.6039  -27.1738   -8.5546 O   0  0  0  0  0  0  0  0  0  0  0  0
    8.4923  -26.2105   -8.8281 O   0  0  0  0  0  0  0  0  0  0  0  0
    6.6189  -30.1215   -9.1460 Br  0  0  0  0  0  0  0  0  0  0  0  0
   13.8291  -25.3160  -13.4071 H   0  0  0  0  0  0  0  0  0  0  0  0
   14.0669  -24.2400  -11.0114 H   0  0  0  0  0  0  0  0  0  0  0  0
   16.1502  -27.4483  -10.0660 H   0  0  0  0  0  0  0  0  0  0  0  0
   16.0698  -28.2234  -11.7145 H   0  0  0  0  0  0  0  0  0  0  0  0
   14.2521  -29.7543  -10.9063 H   0  0  0  0  0  0  0  0  0  0  0  0
   14.3239  -28.9764   -9.2584 H   0  0  0  0  0  0  0  0  0  0  0  0
   13.6863  -27.9605  -13.0895 H   0  0  0  0  0  0  0  0  0  0  0  0
   13.8009  -26.1710   -9.1751 H   0  0  0  0  0  0  0  0  0  0  0  0
   12.0030  -28.5681  -11.3341 H   0  0  0  0  0  0  0  0  0  0  0  0
   11.5785  -25.5365  -10.7587 H   0  0  0  0  0  0  0  0  0  0  0  0
    2.9897  -29.0636   -8.1076 H   0  0  0  0  0  0  0  0  0  0  0  0
    2.4069  -28.5624   -9.7140 H   0  0  0  0  0  0  0  0  0  0  0  0
    3.4265  -29.9924   -9.5631 H   0  0  0  0  0  0  0  0  0  0  0  0
    2.9826  -25.6410   -8.5534 H   0  0  0  0  0  0  0  0  0  0  0  0
    3.3994  -25.1074  -10.2173 H   0  0  0  0  0  0  0  0  0  0  0  0
    2.3991  -26.5630   -9.9813 H   0  0  0  0  0  0  0  0  0  0  0  0
    8.0844  -28.1992  -11.3159 H   0  0  0  0  0  0  0  0  0  0  0  0
  1  2  1  0  0  0  0
  1  3  2  0  0  0  0
  1 25  1  0  0  0  0
  2  8  1  0  0  0  0
  2 18  2  0  0  0  0
  3 16  1  0  0  0  0
  3 19  1  0  0  0  0
  4  5  2  0  0  0  0
  4 11  1  0  0  0  0
  5 12  1  0  0  0  0
  6 13  1  0  0  0  0
  6 20  1  0  0  0  0
  6 22  2  0  0  0  0
  7 14  1  0  0  0  0
  7 20  1  0  0  0  0
  7 23  2  0  0  0  0
  8 21  1  0  0  0  0
  8 24  2  0  0  0  0
  9 10  1  0  0  0  0
  9 15  1  0  0  0  0
 10 15  1  0  0  0  0
 11 13  1  0  0  0  0
 11 15  1  0  0  0  0
 12 14  1  0  0  0  0
 12 15  1  0  0  0  0
 13 14  1  0  0  0  0
 17 19  1  0  0  0  0
 18 19  1  0  0  0  0
 20 21  1  0  0  0  0
  4 26  1  0  0  0  0
  5 27  1  0  0  0  0
  9 28  1  0  0  0  0
  9 29  1  0  0  0  0
 10 30  1  0  0  0  0
 10 31  1  0  0  0  0
 11 32  1  0  0  0  0
 12 33  1  0  0  0  0
 13 34  1  0  0  0  0
 14 35  1  0  0  0  0
 16 36  1  0  0  0  0
 16 37  1  0  0  0  0
 16 38  1  0  0  0  0
 17 39  1  0  0  0  0
 17 40  1  0  0  0  0
 17 41  1  0  0  0  0
 21 42  1  0  0  0  0
M  END
> <Hybrid2>
-3.0273597240448

> <Hybrid2>
-3.027360

$$$$
C06184368
  -OEChem-02152218483D

 42 46  0     1  0  0  0  0  0999 V2000
   13.0134  -26.3154  -11.8546 C   0  0  0  0  0  0  0  0  0  0  0  0
   12.6000  -27.0790  -10.7466 C   0  0  0  0  0  0  0  0  0  0  0  0
   14.3102  -26.7089  -12.0783 C   0  0  0  0  0  0  0  0  0  0  0  0
    5.7383  -28.2626   -7.3933 C   0  0  0  0  0  0  0  0  0  0  0  0
    5.6353  -26.9134   -7.3565 C   0  0  0  0  0  0  0  0  0  0  0  0
    8.4324  -28.6305   -9.6815 C   0  0  0  0  0  0  0  0  0  0  0  0
    8.0953  -26.3513  -10.2694 C   0  0  0  0  0  0  0  0  0  0  0  0
   11.2940  -27.0675  -10.0698 C   0  0  0  0  0  0  0  0  0  0  0  0
    3.3608  -27.5632   -9.5011 C   0  0  0  0  0  0  0  0  0  0  0  0
    4.1879  -27.5089  -10.7656 C   0  0  0  0  0  0  0  0  0  0  0  0
    5.7130  -28.6928   -8.8583 C   0  0  2  0  0  0  0  0  0  0  0  0
    5.6654  -26.4088   -8.8151 C   0  0  1  0  0  0  0  0  0  0  0  0
    6.9803  -28.2711   -9.6053 C   0  0  1  0  0  0  0  0  0  0  0  0
    7.1146  -26.7645   -9.2098 C   0  0  1  0  0  0  0  0  0  0  0  0
    4.8626  -27.5409   -9.4229 C   0  0  0  0  0  0  0  0  0  0  0  0
   15.2982  -26.2885  -13.0905 C   0  0  0  0  0  0  0  0  0  0  0  0
   15.8255  -28.3635  -10.9458 C   0  0  0  0  0  0  0  0  0  0  0  0
   13.5566  -27.8961  -10.2977 N   0  0  0  0  0  0  0  0  0  0  0  0
   14.5839  -27.6481  -11.1279 N   0  0  0  0  0  0  0  0  0  0  0  0
    8.9496  -27.4700  -10.2867 N   0  0  0  0  0  0  0  0  0  0  0  0
   10.1877  -27.4320  -10.8487 N   0  0  0  0  0  0  0  0  0  0  0  0
    8.9607  -29.6854   -9.3918 O   0  0  0  0  0  0  0  0  0  0  0  0
    8.1613  -25.2876  -10.8531 O   0  0  0  0  0  0  0  0  0  0  0  0
   11.1766  -26.7772   -8.8774 O   0  0  0  0  0  0  0  0  0  0  0  0
   11.9962  -25.0591  -12.7868 Br  0  0  0  0  0  0  0  0  0  0  0  0
    5.7940  -28.9231   -6.5429 H   0  0  0  0  0  0  0  0  0  0  0  0
    5.6209  -26.2928   -6.4747 H   0  0  0  0  0  0  0  0  0  0  0  0
    2.8187  -26.6691   -9.2195 H   0  0  0  0  0  0  0  0  0  0  0  0
    2.8493  -28.4913   -9.2780 H   0  0  0  0  0  0  0  0  0  0  0  0
    4.2205  -28.4010  -11.3785 H   0  0  0  0  0  0  0  0  0  0  0  0
    4.1990  -26.5784  -11.3193 H   0  0  0  0  0  0  0  0  0  0  0  0
    5.3278  -29.6942   -9.0535 H   0  0  0  0  0  0  0  0  0  0  0  0
    5.3183  -25.3892   -8.9774 H   0  0  0  0  0  0  0  0  0  0  0  0
    6.7009  -28.3637  -10.6748 H   0  0  0  0  0  0  0  0  0  0  0  0
    7.7375  -26.6311   -8.3030 H   0  0  0  0  0  0  0  0  0  0  0  0
   15.8978  -25.4361  -12.7310 H   0  0  0  0  0  0  0  0  0  0  0  0
   15.9962  -27.1025  -13.3512 H   0  0  0  0  0  0  0  0  0  0  0  0
   14.8181  -25.9847  -14.0367 H   0  0  0  0  0  0  0  0  0  0  0  0
   16.4516  -27.7839  -10.2623 H   0  0  0  0  0  0  0  0  0  0  0  0
   15.6180  -29.3527  -10.5283 H   0  0  0  0  0  0  0  0  0  0  0  0
   16.3207  -28.4801  -11.9138 H   0  0  0  0  0  0  0  0  0  0  0  0
   10.3109  -27.6690  -11.8382 H   0  0  0  0  0  0  0  0  0  0  0  0
  1  2  1  0  0  0  0
  1  3  2  0  0  0  0
  1 25  1  0  0  0  0
  2  8  1  0  0  0  0
  2 18  2  0  0  0  0
  3 16  1  0  0  0  0
  3 19  1  0  0  0  0
  4  5  2  0  0  0  0
  4 11  1  0  0  0  0
  5 12  1  0  0  0  0
  6 13  1  0  0  0  0
  6 20  1  0  0  0  0
  6 22  2  0  0  0  0
  7 14  1  0  0  0  0
  7 20  1  0  0  0  0
  7 23  2  0  0  0  0
  8 21  1  0  0  0  0
  8 24  2  0  0  0  0
  9 10  1  0  0  0  0
  9 15  1  0  0  0  0
 10 15  1  0  0  0  0
 11 13  1  0  0  0  0
 11 15  1  0  0  0  0
 12 14  1  0  0  0  0
 12 15  1  0  0  0  0
 13 14  1  0  0  0  0
 17 19  1  0  0  0  0
 18 19  1  0  0  0  0
 20 21  1  0  0  0  0
  4 26  1  0  0  0  0
  5 27  1  0  0  0  0
  9 28  1  0  0  0  0
  9 29  1  0  0  0  0
 10 30  1  0  0  0  0
 10 31  1  0  0  0  0
 11 32  1  0  0  0  0
 12 33  1  0  0  0  0
 13 34  1  0  0  0  0
 14 35  1  0  0  0  0
 16 36  1  0  0  0  0
 16 37  1  0  0  0  0
 16 38  1  0  0  0  0
 17 39  1  0  0  0  0
 17 40  1  0  0  0  0
 17 41  1  0  0  0  0
 21 42  1  0  0  0  0
M  END
> <Hybrid2>
-3.0273597240448

> <Hybrid2>
-2.434065

$$$$
C04135140
  -OEChem-02152218483D

 48 51  0     1  0  0  0  0  0999 V2000
   13.1144  -27.8900  -12.3265 C   0  0  0  0  0  0  0  0  0  0  0  0
   14.2493  -25.9391  -11.4647 C   0  0  0  0  0  0  0  0  0  0  0  0
   12.3149  -27.0723  -13.1251 C   0  0  0  0  0  0  0  0  0  0  0  0
   13.4499  -25.1213  -12.2633 C   0  0  0  0  0  0  0  0  0  0  0  0
   14.0816  -27.3235  -11.4963 C   0  0  0  0  0  0  0  0  0  0  0  0
   12.4827  -25.6879  -13.0935 C   0  0  0  0  0  0  0  0  0  0  0  0
    9.1508  -28.8407   -9.4004 C   0  0  0  0  0  0  0  0  0  0  0  0
   10.2174  -28.1920   -8.9265 C   0  0  0  0  0  0  0  0  0  0  0  0
    7.9806  -28.1267   -9.8265 C   0  0  0  0  0  0  0  0  0  0  0  0
    7.9332  -26.7846   -9.7678 C   0  0  0  0  0  0  0  0  0  0  0  0
   10.1933  -26.7069   -8.8179 C   0  0  0  0  0  0  0  0  0  0  0  0
    9.0411  -25.2442  -12.8595 C   0  0  0  0  0  0  0  0  0  0  0  0
    6.5169  -24.7315   -9.5032 C   0  0  0  0  0  0  0  0  0  0  0  0
    6.8638  -25.7242  -11.7735 C   0  0  0  0  0  0  0  0  0  0  0  0
    8.9680  -24.6062   -9.0990 C   0  0  0  0  0  0  0  0  0  0  0  0
    7.9757  -23.5940  -11.2165 C   0  0  0  0  0  0  0  0  0  0  0  0
    6.7118  -26.0376  -10.2719 C   0  0  1  0  0  0  0  0  0  0  0  0
    7.7660  -23.8814   -9.7167 C   0  0  1  0  0  0  0  0  0  0  0  0
   14.9360  -28.1975  -10.6418 C   0  0  0  0  0  0  0  0  0  0  0  0
    9.0244  -26.0646   -9.2668 N   0  0  0  0  0  0  0  0  0  0  0  0
    8.0070  -24.8330  -12.0038 N   0  0  0  0  0  0  0  0  0  0  0  0
   10.1552  -24.3559  -13.0464 N   0  0  0  0  0  0  0  0  0  0  0  0
   11.1743  -26.1353   -8.3422 O   0  0  0  0  0  0  0  0  0  0  0  0
    9.0229  -26.3362  -13.4290 O   0  0  0  0  0  0  0  0  0  0  0  0
   11.0176  -25.4328  -15.2416 O   0  0  0  0  0  0  0  0  0  0  0  0
   12.2010  -23.4150  -14.3134 O   0  0  0  0  0  0  0  0  0  0  0  0
   11.4706  -24.6509  -14.1076 S   0  0  0  0  0  0  0  0  0  0  0  0
   12.9763  -28.9675  -12.3575 H   0  0  0  0  0  0  0  0  0  0  0  0
   15.0001  -25.4888  -10.8207 H   0  0  0  0  0  0  0  0  0  0  0  0
   11.5640  -27.5239  -13.7679 H   0  0  0  0  0  0  0  0  0  0  0  0
   13.5887  -24.0439  -12.2306 H   0  0  0  0  0  0  0  0  0  0  0  0
    9.1486  -29.9220   -9.4807 H   0  0  0  0  0  0  0  0  0  0  0  0
   11.1100  -28.7169   -8.6086 H   0  0  0  0  0  0  0  0  0  0  0  0
    7.1503  -28.7092  -10.2116 H   0  0  0  0  0  0  0  0  0  0  0  0
    5.6275  -24.2023   -9.8666 H   0  0  0  0  0  0  0  0  0  0  0  0
    6.3604  -24.9269   -8.4350 H   0  0  0  0  0  0  0  0  0  0  0  0
    6.9299  -26.6514  -12.3421 H   0  0  0  0  0  0  0  0  0  0  0  0
    5.9730  -25.1968  -12.1372 H   0  0  0  0  0  0  0  0  0  0  0  0
    9.9091  -24.1756   -9.4624 H   0  0  0  0  0  0  0  0  0  0  0  0
    8.9579  -24.4357   -8.0140 H   0  0  0  0  0  0  0  0  0  0  0  0
    7.1442  -22.9940  -11.6019 H   0  0  0  0  0  0  0  0  0  0  0  0
    8.8894  -23.0120  -11.3621 H   0  0  0  0  0  0  0  0  0  0  0  0
    5.8137  -26.6508  -10.1343 H   0  0  0  0  0  0  0  0  0  0  0  0
    7.6392  -22.9199   -9.2033 H   0  0  0  0  0  0  0  0  0  0  0  0
   15.8454  -28.4882  -11.1819 H   0  0  0  0  0  0  0  0  0  0  0  0
   15.2297  -27.6856   -9.7162 H   0  0  0  0  0  0  0  0  0  0  0  0
   14.4014  -29.1092  -10.3445 H   0  0  0  0  0  0  0  0  0  0  0  0
   10.1828  -23.4552  -12.5660 H   0  0  0  0  0  0  0  0  0  0  0  0
  1  3  2  0  0  0  0
  1  5  1  0  0  0  0
  2  4  1  0  0  0  0
  2  5  2  0  0  0  0
  3  6  1  0  0  0  0
  4  6  2  0  0  0  0
  5 19  1  0  0  0  0
  6 27  1  0  0  0  0
  7  8  2  0  0  0  0
  7  9  1  0  0  0  0
  8 11  1  0  0  0  0
  9 10  2  0  0  0  0
 10 17  1  0  0  0  0
 10 20  1  0  0  0  0
 11 20  1  0  0  0  0
 11 23  2  0  0  0  0
 12 21  1  0  0  0  0
 12 22  1  0  0  0  0
 12 24  2  0  0  0  0
 13 17  1  0  0  0  0
 13 18  1  0  0  0  0
 14 17  1  0  0  0  0
 14 21  1  0  0  0  0
 15 18  1  0  0  0  0
 15 20  1  0  0  0  0
 16 18  1  0  0  0  0
 16 21  1  0  0  0  0
 22 27  1  0  0  0  0
 25 27  2  0  0  0  0
 26 27  2  0  0  0  0
  1 28  1  0  0  0  0
  2 29  1  0  0  0  0
  3 30  1  0  0  0  0
  4 31  1  0  0  0  0
  7 32  1  0  0  0  0
  8 33  1  0  0  0  0
  9 34  1  0  0  0  0
 13 35  1  0  0  0  0
 13 36  1  0  0  0  0
 14 37  1  0  0  0  0
 14 38  1  0  0  0  0
 15 39  1  0  0  0  0
 15 40  1  0  0  0  0
 16 41  1  0  0  0  0
 16 42  1  0  0  0  0
 17 43  1  0  0  0  0
 18 44  1  0  0  0  0
 19 45  1  0  0  0  0
 19 46  1  0  0  0  0
 19 47  1  0  0  0  0
 22 48  1  0  0  0  0
M  END
> <Hybrid2>
-1.9735324382781982

> <Hybrid2>
-1.973532

$$$$
C04135140
  -OEChem-02152218483D

 48 51  0     1  0  0  0  0  0999 V2000
   14.0078  -29.0711  -12.4014 C   0  0  0  0  0  0  0  0  0  0  0  0
   14.0392  -27.2708  -10.7905 C   0  0  0  0  0  0  0  0  0  0  0  0
   12.7130  -28.7128  -12.7766 C   0  0  0  0  0  0  0  0  0  0  0  0
   12.7444  -26.9125  -11.1657 C   0  0  0  0  0  0  0  0  0  0  0  0
   14.6709  -28.3501  -11.4083 C   0  0  0  0  0  0  0  0  0  0  0  0
   12.0813  -27.6336  -12.1588 C   0  0  0  0  0  0  0  0  0  0  0  0
    4.3840  -25.9226   -8.7201 C   0  0  0  0  0  0  0  0  0  0  0  0
    3.9414  -26.3138   -9.9177 C   0  0  0  0  0  0  0  0  0  0  0  0
    5.2888  -26.7409   -7.9636 C   0  0  0  0  0  0  0  0  0  0  0  0
    5.7148  -27.9219   -8.4440 C   0  0  0  0  0  0  0  0  0  0  0  0
    4.3708  -27.6274  -10.4734 C   0  0  0  0  0  0  0  0  0  0  0  0
    9.1932  -27.7656  -10.2009 C   0  0  0  0  0  0  0  0  0  0  0  0
    6.5106  -30.2450   -7.9194 C   0  0  0  0  0  0  0  0  0  0  0  0
    8.1453  -28.3583   -8.0356 C   0  0  0  0  0  0  0  0  0  0  0  0
    5.6159  -29.7155  -10.1799 C   0  0  0  0  0  0  0  0  0  0  0  0
    8.1180  -30.0511   -9.8556 C   0  0  0  0  0  0  0  0  0  0  0  0
    6.7082  -28.7553   -7.6584 C   0  0  1  0  0  0  0  0  0  0  0  0
    6.7054  -30.4744   -9.4120 C   0  0  1  0  0  0  0  0  0  0  0  0
   16.0550  -28.7334  -11.0065 C   0  0  0  0  0  0  0  0  0  0  0  0
    5.2616  -28.3798   -9.6852 N   0  0  0  0  0  0  0  0  0  0  0  0
    8.4689  -28.6902   -9.4285 N   0  0  0  0  0  0  0  0  0  0  0  0
    9.5061  -28.1286  -11.5567 N   0  0  0  0  0  0  0  0  0  0  0  0
    3.9231  -27.9795  -11.5648 O   0  0  0  0  0  0  0  0  0  0  0  0
    9.5679  -26.6827   -9.7499 O   0  0  0  0  0  0  0  0  0  0  0  0
   10.2520  -25.7747  -12.3231 O   0  0  0  0  0  0  0  0  0  0  0  0
   10.2503  -27.6642  -13.9883 O   0  0  0  0  0  0  0  0  0  0  0  0
   10.4417  -27.1781  -12.6355 S   0  0  0  0  0  0  0  0  0  0  0  0
   14.4918  -29.9136  -12.8881 H   0  0  0  0  0  0  0  0  0  0  0  0
   14.5479  -26.7036  -10.0155 H   0  0  0  0  0  0  0  0  0  0  0  0
   12.2051  -29.2816  -13.5511 H   0  0  0  0  0  0  0  0  0  0  0  0
   12.2614  -26.0702  -10.6775 H   0  0  0  0  0  0  0  0  0  0  0  0
    4.0748  -24.9739   -8.2961 H   0  0  0  0  0  0  0  0  0  0  0  0
    3.2669  -25.7024  -10.5046 H   0  0  0  0  0  0  0  0  0  0  0  0
    5.6260  -26.3615   -7.0048 H   0  0  0  0  0  0  0  0  0  0  0  0
    7.2340  -30.8347   -7.3433 H   0  0  0  0  0  0  0  0  0  0  0  0
    5.5101  -30.5675   -7.6052 H   0  0  0  0  0  0  0  0  0  0  0  0
    8.3100  -27.2970   -7.8084 H   0  0  0  0  0  0  0  0  0  0  0  0
    8.8650  -28.9104   -7.4057 H   0  0  0  0  0  0  0  0  0  0  0  0
    5.8738  -29.6385  -11.2432 H   0  0  0  0  0  0  0  0  0  0  0  0
    4.6876  -30.3010  -10.1367 H   0  0  0  0  0  0  0  0  0  0  0  0
    8.8676  -30.7245   -9.4111 H   0  0  0  0  0  0  0  0  0  0  0  0
    8.2153  -30.1564  -10.9459 H   0  0  0  0  0  0  0  0  0  0  0  0
    6.5734  -28.5786   -6.5809 H   0  0  0  0  0  0  0  0  0  0  0  0
    6.5933  -31.5479   -9.6294 H   0  0  0  0  0  0  0  0  0  0  0  0
   16.7922  -28.1991  -11.6182 H   0  0  0  0  0  0  0  0  0  0  0  0
   16.2430  -28.4983   -9.9508 H   0  0  0  0  0  0  0  0  0  0  0  0
   16.2202  -29.8122  -11.1257 H   0  0  0  0  0  0  0  0  0  0  0  0
    9.2043  -29.0319  -11.9297 H   0  0  0  0  0  0  0  0  0  0  0  0
  1  3  2  0  0  0  0
  1  5  1  0  0  0  0
  2  4  1  0  0  0  0
  2  5  2  0  0  0  0
  3  6  1  0  0  0  0
  4  6  2  0  0  0  0
  5 19  1  0  0  0  0
  6 27  1  0  0  0  0
  7  8  2  0  0  0  0
  7  9  1  0  0  0  0
  8 11  1  0  0  0  0
  9 10  2  0  0  0  0
 10 17  1  0  0  0  0
 10 20  1  0  0  0  0
 11 20  1  0  0  0  0
 11 23  2  0  0  0  0
 12 21  1  0  0  0  0
 12 22  1  0  0  0  0
 12 24  2  0  0  0  0
 13 17  1  0  0  0  0
 13 18  1  0  0  0  0
 14 17  1  0  0  0  0
 14 21  1  0  0  0  0
 15 18  1  0  0  0  0
 15 20  1  0  0  0  0
 16 18  1  0  0  0  0
 16 21  1  0  0  0  0
 22 27  1  0  0  0  0
 25 27  2  0  0  0  0
 26 27  2  0  0  0  0
  1 28  1  0  0  0  0
  2 29  1  0  0  0  0
  3 30  1  0  0  0  0
  4 31  1  0  0  0  0
  7 32  1  0  0  0  0
  8 33  1  0  0  0  0
  9 34  1  0  0  0  0
 13 35  1  0  0  0  0
 13 36  1  0  0  0  0
 14 37  1  0  0  0  0
 14 38  1  0  0  0  0
 15 39  1  0  0  0  0
 15 40  1  0  0  0  0
 16 41  1  0  0  0  0
 16 42  1  0  0  0  0
 17 43  1  0  0  0  0
 18 44  1  0  0  0  0
 19 45  1  0  0  0  0
 19 46  1  0  0  0  0
 19 47  1  0  0  0  0
 22 48  1  0  0  0  0
M  END
> <Hybrid2>
-1.9735324382781982

> <Hybrid2>
-0.579274

$$$$
C06602472
  -OEChem-02152218483D

 38 39  0     0  0  0  0  0  0999 V2000
   10.1986  -26.1224   -9.5318 C   0  0  0  0  0  0  0  0  0  0  0  0
    9.6476  -27.8124  -11.1681 C   0  0  0  0  0  0  0  0  0  0  0  0
    5.1000  -27.6890   -8.8016 C   0  0  0  0  0  0  0  0  0  0  0  0
    5.4528  -29.9105   -9.6834 C   0  0  0  0  0  0  0  0  0  0  0  0
   11.5031  -26.0720  -10.0231 C   0  0  0  0  0  0  0  0  0  0  0  0
   10.9520  -27.7620  -11.6595 C   0  0  0  0  0  0  0  0  0  0  0  0
    3.7947  -28.0349   -8.4522 C   0  0  0  0  0  0  0  0  0  0  0  0
    4.1475  -30.2564   -9.3340 C   0  0  0  0  0  0  0  0  0  0  0  0
    9.2709  -26.9926  -10.1043 C   0  0  0  0  0  0  0  0  0  0  0  0
    5.9291  -28.6267   -9.4172 C   0  0  0  0  0  0  0  0  0  0  0  0
    3.3185  -29.3187   -8.7184 C   0  0  0  0  0  0  0  0  0  0  0  0
   11.8798  -26.8918  -11.0870 C   0  0  0  0  0  0  0  0  0  0  0  0
    7.9118  -27.0478   -9.5896 C   0  0  0  0  0  0  0  0  0  0  0  0
    1.8236  -30.3864   -6.6258 C   0  0  0  0  0  0  0  0  0  0  0  0
   14.3940  -28.0381  -10.7491 C   0  0  0  0  0  0  0  0  0  0  0  0
    7.2558  -28.2751   -9.7723 N   0  0  0  0  0  0  0  0  0  0  0  0
    7.3745  -26.0637   -9.0626 O   0  0  0  0  0  0  0  0  0  0  0  0
    0.8958  -28.5289   -8.2269 O   0  0  0  0  0  0  0  0  0  0  0  0
    1.2475  -30.8564   -9.1240 O   0  0  0  0  0  0  0  0  0  0  0  0
   14.0903  -25.5324  -11.3736 O   0  0  0  0  0  0  0  0  0  0  0  0
   13.4838  -27.2821  -13.0844 O   0  0  0  0  0  0  0  0  0  0  0  0
   15.6996  -28.0940  -11.1149 F   0  0  0  0  0  0  0  0  0  0  0  0
   14.3703  -27.7241   -9.4298 F   0  0  0  0  0  0  0  0  0  0  0  0
    1.6845  -29.7516   -8.2814 S   0  0  0  0  0  0  0  0  0  0  0  0
   13.5130  -26.8285  -11.7016 S   0  0  0  0  0  0  0  0  0  0  0  0
    9.9165  -25.4806   -8.7012 H   0  0  0  0  0  0  0  0  0  0  0  0
    8.9331  -28.4949  -11.6213 H   0  0  0  0  0  0  0  0  0  0  0  0
    5.4606  -26.6856   -8.5895 H   0  0  0  0  0  0  0  0  0  0  0  0
    6.0901  -30.6494  -10.1626 H   0  0  0  0  0  0  0  0  0  0  0  0
   12.2179  -25.3902   -9.5707 H   0  0  0  0  0  0  0  0  0  0  0  0
   11.2357  -28.4047  -12.4884 H   0  0  0  0  0  0  0  0  0  0  0  0
    3.1572  -27.2966   -7.9732 H   0  0  0  0  0  0  0  0  0  0  0  0
    3.7866  -31.2593   -9.5459 H   0  0  0  0  0  0  0  0  0  0  0  0
    0.8295  -30.6796   -6.2847 H   0  0  0  0  0  0  0  0  0  0  0  0
    2.4919  -31.2487   -6.6426 H   0  0  0  0  0  0  0  0  0  0  0  0
    2.2300  -29.5997   -5.9884 H   0  0  0  0  0  0  0  0  0  0  0  0
   13.9434  -29.0222  -10.8962 H   0  0  0  0  0  0  0  0  0  0  0  0
    7.8034  -29.0074  -10.2174 H   0  0  0  0  0  0  0  0  0  0  0  0
  1  5  2  0  0  0  0
  1  9  1  0  0  0  0
  2  6  1  0  0  0  0
  2  9  2  0  0  0  0
  3  7  2  0  0  0  0
  3 10  1  0  0  0  0
  4  8  1  0  0  0  0
  4 10  2  0  0  0  0
  5 12  1  0  0  0  0
  6 12  2  0  0  0  0
  7 11  1  0  0  0  0
  8 11  2  0  0  0  0
  9 13  1  0  0  0  0
 10 16  1  0  0  0  0
 11 24  1  0  0  0  0
 12 25  1  0  0  0  0
 13 16  1  0  0  0  0
 13 17  2  0  0  0  0
 14 24  1  0  0  0  0
 15 22  1  0  0  0  0
 15 23  1  0  0  0  0
 15 25  1  0  0  0  0
 18 24  2  0  0  0  0
 19 24  2  0  0  0  0
 20 25  2  0  0  0  0
 21 25  2  0  0  0  0
  1 26  1  0  0  0  0
  2 27  1  0  0  0  0
  3 28  1  0  0  0  0
  4 29  1  0  0  0  0
  5 30  1  0  0  0  0
  6 31  1  0  0  0  0
  7 32  1  0  0  0  0
  8 33  1  0  0  0  0
 14 34  1  0  0  0  0
 14 35  1  0  0  0  0
 14 36  1  0  0  0  0
 15 37  1  0  0  0  0
 16 38  1  0  0  0  0
M  END
> <Hybrid2>
-4.570272922515869

> <Hybrid2>
-4.570273

$$$$
C06602472
  -OEChem-02152218483D

 38 39  0     0  0  0  0  0  0999 V2000
   10.1060  -26.5031   -9.4245 C   0  0  0  0  0  0  0  0  0  0  0  0
    9.6066  -28.1274  -11.1419 C   0  0  0  0  0  0  0  0  0  0  0  0
    4.8517  -28.0879   -9.4715 C   0  0  0  0  0  0  0  0  0  0  0  0
    5.5616  -30.3850   -9.2342 C   0  0  0  0  0  0  0  0  0  0  0  0
   11.4198  -26.4197   -9.8854 C   0  0  0  0  0  0  0  0  0  0  0  0
   10.9204  -28.0439  -11.6029 C   0  0  0  0  0  0  0  0  0  0  0  0
    3.5431  -28.4606   -9.1648 C   0  0  0  0  0  0  0  0  0  0  0  0
    4.2529  -30.7578   -8.9275 C   0  0  0  0  0  0  0  0  0  0  0  0
    9.1994  -27.3570  -10.0527 C   0  0  0  0  0  0  0  0  0  0  0  0
    5.8610  -29.0501   -9.5062 C   0  0  0  0  0  0  0  0  0  0  0  0
    3.2437  -29.7955   -8.8928 C   0  0  0  0  0  0  0  0  0  0  0  0
   11.8271  -27.1901  -10.9746 C   0  0  0  0  0  0  0  0  0  0  0  0
    7.8306  -27.4467   -9.5698 C   0  0  0  0  0  0  0  0  0  0  0  0
    1.5057  -30.1100   -6.7400 C   0  0  0  0  0  0  0  0  0  0  0  0
   14.3454  -28.3260  -10.6320 C   0  0  0  0  0  0  0  0  0  0  0  0
    7.1911  -28.6712   -9.8180 N   0  0  0  0  0  0  0  0  0  0  0  0
    7.2723  -26.4909   -9.0133 O   0  0  0  0  0  0  0  0  0  0  0  0
    0.7093  -29.2751   -9.0945 O   0  0  0  0  0  0  0  0  0  0  0  0
    1.4308  -31.6735   -8.8242 O   0  0  0  0  0  0  0  0  0  0  0  0
   14.0289  -25.7990  -11.1567 O   0  0  0  0  0  0  0  0  0  0  0  0
   13.4762  -27.4804  -12.9522 O   0  0  0  0  0  0  0  0  0  0  0  0
   13.8321  -29.5605  -10.8645 F   0  0  0  0  0  0  0  0  0  0  0  0
   15.6504  -28.3692  -10.9991 F   0  0  0  0  0  0  0  0  0  0  0  0
    1.6055  -30.2621   -8.5093 S   0  0  0  0  0  0  0  0  0  0  0  0
   13.4719  -27.0854  -11.5512 S   0  0  0  0  0  0  0  0  0  0  0  0
    9.8000  -25.8997   -8.5737 H   0  0  0  0  0  0  0  0  0  0  0  0
    8.9088  -28.7968  -11.6385 H   0  0  0  0  0  0  0  0  0  0  0  0
    5.0735  -27.0447   -9.6819 H   0  0  0  0  0  0  0  0  0  0  0  0
    6.3402  -31.1433   -9.2583 H   0  0  0  0  0  0  0  0  0  0  0  0
   12.1180  -25.7510   -9.3895 H   0  0  0  0  0  0  0  0  0  0  0  0
   11.2279  -28.6483  -12.4519 H   0  0  0  0  0  0  0  0  0  0  0  0
    2.7644  -27.7030   -9.1407 H   0  0  0  0  0  0  0  0  0  0  0  0
    4.0307  -31.8005   -8.7172 H   0  0  0  0  0  0  0  0  0  0  0  0
    0.4984  -30.3888   -6.4267 H   0  0  0  0  0  0  0  0  0  0  0  0
    2.2437  -30.7789   -6.2947 H   0  0  0  0  0  0  0  0  0  0  0  0
    1.7168  -29.0739   -6.4712 H   0  0  0  0  0  0  0  0  0  0  0  0
   14.2758  -28.1099   -9.5635 H   0  0  0  0  0  0  0  0  0  0  0  0
    7.7554  -29.3789  -10.2818 H   0  0  0  0  0  0  0  0  0  0  0  0
  1  5  2  0  0  0  0
  1  9  1  0  0  0  0
  2  6  1  0  0  0  0
  2  9  2  0  0  0  0
  3  7  2  0  0  0  0
  3 10  1  0  0  0  0
  4  8  1  0  0  0  0
  4 10  2  0  0  0  0
  5 12  1  0  0  0  0
  6 12  2  0  0  0  0
  7 11  1  0  0  0  0
  8 11  2  0  0  0  0
  9 13  1  0  0  0  0
 10 16  1  0  0  0  0
 11 24  1  0  0  0  0
 12 25  1  0  0  0  0
 13 16  1  0  0  0  0
 13 17  2  0  0  0  0
 14 24  1  0  0  0  0
 15 22  1  0  0  0  0
 15 23  1  0  0  0  0
 15 25  1  0  0  0  0
 18 24  2  0  0  0  0
 19 24  2  0  0  0  0
 20 25  2  0  0  0  0
 21 25  2  0  0  0  0
  1 26  1  0  0  0  0
  2 27  1  0  0  0  0
  3 28  1  0  0  0  0
  4 29  1  0  0  0  0
  5 30  1  0  0  0  0
  6 31  1  0  0  0  0
  7 32  1  0  0  0  0
  8 33  1  0  0  0  0
 14 34  1  0  0  0  0
 14 35  1  0  0  0  0
 14 36  1  0  0  0  0
 15 37  1  0  0  0  0
 16 38  1  0  0  0  0
M  END
> <Hybrid2>
-4.570272922515869

> <Hybrid2>
-4.405882

$$$$
C06697882
  -OEChem-02152218483D

 32 33  0     0  0  0  0  0  0999 V2000
    6.4020  -29.6122   -8.0794 C   0  0  0  0  0  0  0  0  0  0  0  0
    6.2344  -28.2747   -8.4202 C   0  0  0  0  0  0  0  0  0  0  0  0
    9.4209  -26.9034   -8.9649 C   0  0  0  0  0  0  0  0  0  0  0  0
   10.6644  -27.4581   -9.2675 C   0  0  0  0  0  0  0  0  0  0  0  0
    9.4257  -25.7379  -11.0811 C   0  0  0  0  0  0  0  0  0  0  0  0
    6.6423  -30.5166   -9.1012 C   0  0  0  0  0  0  0  0  0  0  0  0
    6.5558  -28.8694  -10.7004 C   0  0  0  0  0  0  0  0  0  0  0  0
    6.3112  -27.8878   -9.7536 C   0  0  0  0  0  0  0  0  0  0  0  0
    8.8015  -26.0433   -9.8717 C   0  0  0  0  0  0  0  0  0  0  0  0
   10.6693  -26.2925  -11.3837 C   0  0  0  0  0  0  0  0  0  0  0  0
   11.2886  -27.1526  -10.4769 C   0  0  0  0  0  0  0  0  0  0  0  0
   12.7762  -24.8366  -12.4769 C   0  0  0  0  0  0  0  0  0  0  0  0
    6.7238  -30.1785  -10.4076 N   0  0  0  0  0  0  0  0  0  0  0  0
    6.1443  -26.5119  -10.1371 N   0  0  0  0  0  0  0  0  0  0  0  0
   11.9182  -27.0860  -13.5157 O   0  0  0  0  0  0  0  0  0  0  0  0
   10.4635  -25.0346  -13.6626 O   0  0  0  0  0  0  0  0  0  0  0  0
    7.1051  -24.1212  -10.2640 O   0  0  0  0  0  0  0  0  0  0  0  0
    7.0981  -25.2930   -8.0445 O   0  0  0  0  0  0  0  0  0  0  0  0
   11.3974  -25.8662  -12.9200 S   0  0  0  0  0  0  0  0  0  0  0  0
    7.2438  -25.3517   -9.4939 S   0  0  0  0  0  0  0  0  0  0  0  0
   12.9803  -27.9409  -10.8236 Br  0  0  0  0  0  0  0  0  0  0  0  0
    6.3468  -29.9367   -7.0468 H   0  0  0  0  0  0  0  0  0  0  0  0
    6.0464  -27.5422   -7.6402 H   0  0  0  0  0  0  0  0  0  0  0  0
    8.9421  -27.1498   -8.0207 H   0  0  0  0  0  0  0  0  0  0  0  0
   11.1292  -28.1276   -8.5482 H   0  0  0  0  0  0  0  0  0  0  0  0
    8.9400  -25.0676  -11.7863 H   0  0  0  0  0  0  0  0  0  0  0  0
    6.7807  -31.5715   -8.8880 H   0  0  0  0  0  0  0  0  0  0  0  0
    6.6286  -28.6277  -11.7567 H   0  0  0  0  0  0  0  0  0  0  0  0
   13.2843  -24.5287  -13.3922 H   0  0  0  0  0  0  0  0  0  0  0  0
   12.3973  -23.9665  -11.9387 H   0  0  0  0  0  0  0  0  0  0  0  0
   13.4487  -25.4160  -11.8426 H   0  0  0  0  0  0  0  0  0  0  0  0
    5.8584  -26.3690  -11.1148 H   0  0  0  0  0  0  0  0  0  0  0  0
  1  2  2  0  0  0  0
  1  6  1  0  0  0  0
  2  8  1  0  0  0  0
  3  4  2  0  0  0  0
  3  9  1  0  0  0  0
  4 11  1  0  0  0  0
  5  9  2  0  0  0  0
  5 10  1  0  0  0  0
  6 13  2  0  0  0  0
  7  8  2  0  0  0  0
  7 13  1  0  0  0  0
  8 14  1  0  0  0  0
  9 20  1  0  0  0  0
 10 11  2  0  0  0  0
 10 19  1  0  0  0  0
 11 21  1  0  0  0  0
 12 19  1  0  0  0  0
 14 20  1  0  0  0  0
 15 19  2  0  0  0  0
 16 19  2  0  0  0  0
 17 20  2  0  0  0  0
 18 20  2  0  0  0  0
  1 22  1  0  0  0  0
  2 23  1  0  0  0  0
  3 24  1  0  0  0  0
  4 25  1  0  0  0  0
  5 26  1  0  0  0  0
  6 27  1  0  0  0  0
  7 28  1  0  0  0  0
 12 29  1  0  0  0  0
 12 30  1  0  0  0  0
 12 31  1  0  0  0  0
 14 32  1  0  0  0  0
M  END
> <Hybrid2>
-3.2493889331817627

> <Hybrid2>
-3.249389

$$$$
C06697882
  -OEChem-02152218483D

 32 33  0     0  0  0  0  0  0999 V2000
    6.2584  -29.2237   -7.8386 C   0  0  0  0  0  0  0  0  0  0  0  0
    6.0821  -27.9661   -8.4049 C   0  0  0  0  0  0  0  0  0  0  0  0
    9.2646  -26.6046   -8.9952 C   0  0  0  0  0  0  0  0  0  0  0  0
   10.5355  -27.1625   -9.1337 C   0  0  0  0  0  0  0  0  0  0  0  0
    9.3685  -25.8028  -11.2719 C   0  0  0  0  0  0  0  0  0  0  0  0
    6.5778  -30.2757   -8.6818 C   0  0  0  0  0  0  0  0  0  0  0  0
    6.5497  -28.9169  -10.5341 C   0  0  0  0  0  0  0  0  0  0  0  0
    6.2287  -27.8013   -9.7777 C   0  0  0  0  0  0  0  0  0  0  0  0
    8.6811  -25.9247  -10.0644 C   0  0  0  0  0  0  0  0  0  0  0  0
   10.6395  -26.3607  -11.4104 C   0  0  0  0  0  0  0  0  0  0  0  0
   11.2229  -27.0405  -10.3412 C   0  0  0  0  0  0  0  0  0  0  0  0
   12.7749  -25.0393  -12.6136 C   0  0  0  0  0  0  0  0  0  0  0  0
    6.7286  -30.1543  -10.0198 N   0  0  0  0  0  0  0  0  0  0  0  0
    6.0548  -26.5128  -10.3925 N   0  0  0  0  0  0  0  0  0  0  0  0
   12.0283  -27.4542  -13.3103 O   0  0  0  0  0  0  0  0  0  0  0  0
   10.5406  -25.5011  -13.8740 O   0  0  0  0  0  0  0  0  0  0  0  0
    6.9694  -24.1468  -10.8614 O   0  0  0  0  0  0  0  0  0  0  0  0
    6.8575  -24.9379   -8.4821 O   0  0  0  0  0  0  0  0  0  0  0  0
   11.4472  -26.1700  -12.9542 S   0  0  0  0  0  0  0  0  0  0  0  0
    7.0893  -25.2292   -9.8916 S   0  0  0  0  0  0  0  0  0  0  0  0
   12.9487  -27.8221  -10.4601 Br  0  0  0  0  0  0  0  0  0  0  0  0
    6.1496  -29.3757   -6.7710 H   0  0  0  0  0  0  0  0  0  0  0  0
    5.8328  -27.1217   -7.7684 H   0  0  0  0  0  0  0  0  0  0  0  0
    8.7366  -26.7074   -8.0507 H   0  0  0  0  0  0  0  0  0  0  0  0
   10.9717  -27.6900   -8.2892 H   0  0  0  0  0  0  0  0  0  0  0  0
    8.9106  -25.2729  -12.1037 H   0  0  0  0  0  0  0  0  0  0  0  0
    6.7263  -31.2764   -8.2895 H   0  0  0  0  0  0  0  0  0  0  0  0
    6.6791  -28.8498  -11.6103 H   0  0  0  0  0  0  0  0  0  0  0  0
   13.3291  -24.8703  -13.5382 H   0  0  0  0  0  0  0  0  0  0  0  0
   12.3462  -24.1048  -12.2484 H   0  0  0  0  0  0  0  0  0  0  0  0
   13.4213  -25.4855  -11.8564 H   0  0  0  0  0  0  0  0  0  0  0  0
    5.8238  -26.5414  -11.3944 H   0  0  0  0  0  0  0  0  0  0  0  0
  1  2  2  0  0  0  0
  1  6  1  0  0  0  0
  2  8  1  0  0  0  0
  3  4  2  0  0  0  0
  3  9  1  0  0  0  0
  4 11  1  0  0  0  0
  5  9  2  0  0  0  0
  5 10  1  0  0  0  0
  6 13  2  0  0  0  0
  7  8  2  0  0  0  0
  7 13  1  0  0  0  0
  8 14  1  0  0  0  0
  9 20  1  0  0  0  0
 10 11  2  0  0  0  0
 10 19  1  0  0  0  0
 11 21  1  0  0  0  0
 12 19  1  0  0  0  0
 14 20  1  0  0  0  0
 15 19  2  0  0  0  0
 16 19  2  0  0  0  0
 17 20  2  0  0  0  0
 18 20  2  0  0  0  0
  1 22  1  0  0  0  0
  2 23  1  0  0  0  0
  3 24  1  0  0  0  0
  4 25  1  0  0  0  0
  5 26  1  0  0  0  0
  6 27  1  0  0  0  0
  7 28  1  0  0  0  0
 12 29  1  0  0  0  0
 12 30  1  0  0  0  0
 12 31  1  0  0  0  0
 14 32  1  0  0  0  0
M  END
> <Hybrid2>
-3.2493889331817627

> <Hybrid2>
-2.527053

$$$$
C08157146
  -OEChem-02152218483D

 52 55  0     1  0  0  0  0  0999 V2000
   13.6131  -27.4081  -12.3695 C   0  0  0  0  0  0  0  0  0  0  0  0
   12.8593  -26.7326  -13.3270 C   0  0  0  0  0  0  0  0  0  0  0  0
    6.5562  -31.3959   -8.2754 C   0  0  0  0  0  0  0  0  0  0  0  0
    7.7677  -31.3287   -8.9634 C   0  0  0  0  0  0  0  0  0  0  0  0
   13.1937  -27.4325  -11.0393 C   0  0  0  0  0  0  0  0  0  0  0  0
   11.6798  -26.0863  -12.9581 C   0  0  0  0  0  0  0  0  0  0  0  0
    5.6871  -30.3049   -8.2851 C   0  0  0  0  0  0  0  0  0  0  0  0
    8.1102  -30.1705   -9.6610 C   0  0  0  0  0  0  0  0  0  0  0  0
   12.0148  -26.7793  -10.6630 C   0  0  0  0  0  0  0  0  0  0  0  0
   11.2458  -26.1084  -11.6249 C   0  0  0  0  0  0  0  0  0  0  0  0
    6.0297  -29.1466   -8.9827 C   0  0  0  0  0  0  0  0  0  0  0  0
    7.2412  -29.0793   -9.6707 C   0  0  0  0  0  0  0  0  0  0  0  0
   11.5785  -26.7568   -9.2702 C   0  0  0  0  0  0  0  0  0  0  0  0
   10.5594  -25.9774   -8.8872 C   0  0  0  0  0  0  0  0  0  0  0  0
    5.3838  -26.7460   -8.4968 C   0  0  0  0  0  0  0  0  0  0  0  0
    8.8657  -24.2469   -9.3403 C   0  0  0  0  0  0  0  0  0  0  0  0
    8.7779  -27.7020  -11.1143 C   0  0  0  0  0  0  0  0  0  0  0  0
    4.0961  -25.9616   -8.6082 C   0  0  0  0  0  0  0  0  0  0  0  0
    3.2972  -26.7429   -9.6321 C   0  0  0  0  0  0  0  0  0  0  0  0
    3.7468  -28.1722   -9.4120 C   0  0  0  0  0  0  0  0  0  0  0  0
    9.9364  -25.4546  -11.2244 C   0  0  1  0  0  0  0  0  0  0  0  0
    8.6938  -24.0484   -7.8519 C   0  0  0  0  0  0  0  0  0  0  0  0
    8.7607  -26.3136  -11.7179 C   0  0  0  0  0  0  0  0  0  0  0  0
    5.1244  -28.0444   -8.9776 N   0  0  0  0  0  0  0  0  0  0  0  0
    9.8031  -25.2070   -9.7614 N   0  0  0  0  0  0  0  0  0  0  0  0
    7.6111  -27.9154  -10.3857 N   0  0  0  0  0  0  0  0  0  0  0  0
    6.4005  -26.2751   -8.0082 O   0  0  0  0  0  0  0  0  0  0  0  0
    8.1922  -23.5608  -10.1154 O   0  0  0  0  0  0  0  0  0  0  0  0
    9.7093  -28.4836  -11.2761 O   0  0  0  0  0  0  0  0  0  0  0  0
   14.5302  -27.9132  -12.6583 H   0  0  0  0  0  0  0  0  0  0  0  0
   13.1886  -26.7119  -14.3618 H   0  0  0  0  0  0  0  0  0  0  0  0
    6.2896  -32.2979   -7.7323 H   0  0  0  0  0  0  0  0  0  0  0  0
    8.4442  -32.1784   -8.9558 H   0  0  0  0  0  0  0  0  0  0  0  0
   13.7999  -27.9553  -10.3034 H   0  0  0  0  0  0  0  0  0  0  0  0
   11.0963  -25.5713  -13.7170 H   0  0  0  0  0  0  0  0  0  0  0  0
    4.7458  -30.3696   -7.7451 H   0  0  0  0  0  0  0  0  0  0  0  0
    9.0573  -30.1305  -10.1933 H   0  0  0  0  0  0  0  0  0  0  0  0
   12.1375  -27.3306   -8.5389 H   0  0  0  0  0  0  0  0  0  0  0  0
   10.3192  -25.9246   -7.8325 H   0  0  0  0  0  0  0  0  0  0  0  0
    3.6035  -25.9551   -7.6307 H   0  0  0  0  0  0  0  0  0  0  0  0
    4.2894  -24.9375   -8.9366 H   0  0  0  0  0  0  0  0  0  0  0  0
    2.2185  -26.6155   -9.5051 H   0  0  0  0  0  0  0  0  0  0  0  0
    3.5635  -26.4167  -10.6449 H   0  0  0  0  0  0  0  0  0  0  0  0
    3.1775  -28.6543   -8.6088 H   0  0  0  0  0  0  0  0  0  0  0  0
    3.6799  -28.7738  -10.3243 H   0  0  0  0  0  0  0  0  0  0  0  0
    9.8828  -24.4740  -11.7159 H   0  0  0  0  0  0  0  0  0  0  0  0
    9.3848  -23.2835   -7.5172 H   0  0  0  0  0  0  0  0  0  0  0  0
    8.8994  -24.9849   -7.3458 H   0  0  0  0  0  0  0  0  0  0  0  0
    7.6728  -23.7422   -7.6537 H   0  0  0  0  0  0  0  0  0  0  0  0
    8.8203  -26.3909  -12.8033 H   0  0  0  0  0  0  0  0  0  0  0  0
    7.8301  -25.8142  -11.4489 H   0  0  0  0  0  0  0  0  0  0  0  0
    6.9365  -27.1537  -10.3555 H   0  0  0  0  0  0  0  0  0  0  0  0
  1  2  1  0  0  0  0
  1  5  2  0  0  0  0
  2  6  2  0  0  0  0
  3  4  1  0  0  0  0
  3  7  2  0  0  0  0
  4  8  2  0  0  0  0
  5  9  1  0  0  0  0
  6 10  1  0  0  0  0
  7 11  1  0  0  0  0
  8 12  1  0  0  0  0
  9 10  2  0  0  0  0
  9 13  1  0  0  0  0
 10 21  1  0  0  0  0
 11 12  2  0  0  0  0
 11 24  1  0  0  0  0
 12 26  1  0  0  0  0
 13 14  2  0  0  0  0
 14 25  1  0  0  0  0
 15 18  1  0  0  0  0
 15 24  1  0  0  0  0
 15 27  2  0  0  0  0
 16 22  1  0  0  0  0
 16 25  1  0  0  0  0
 16 28  2  0  0  0  0
 17 23  1  0  0  0  0
 17 26  1  0  0  0  0
 17 29  2  0  0  0  0
 18 19  1  0  0  0  0
 19 20  1  0  0  0  0
 20 24  1  0  0  0  0
 21 23  1  0  0  0  0
 21 25  1  0  0  0  0
  1 30  1  0  0  0  0
  2 31  1  0  0  0  0
  3 32  1  0  0  0  0
  4 33  1  0  0  0  0
  5 34  1  0  0  0  0
  6 35  1  0  0  0  0
  7 36  1  0  0  0  0
  8 37  1  0  0  0  0
 13 38  1  0  0  0  0
 14 39  1  0  0  0  0
 18 40  1  0  0  0  0
 18 41  1  0  0  0  0
 19 42  1  0  0  0  0
 19 43  1  0  0  0  0
 20 44  1  0  0  0  0
 20 45  1  0  0  0  0
 21 46  1  0  0  0  0
 22 47  1  0  0  0  0
 22 48  1  0  0  0  0
 22 49  1  0  0  0  0
 23 50  1  0  0  0  0
 23 51  1  0  0  0  0
 26 52  1  0  0  0  0
M  END
> <Hybrid2>
-3.2998547554016113

> <Hybrid2>
-3.299855

$$$$
C08157146
  -OEChem-02152218483D

 52 55  0     1  0  0  0  0  0999 V2000
    7.9117  -25.9801  -13.8484 C   0  0  0  0  0  0  0  0  0  0  0  0
    8.3488  -24.7228  -13.4371 C   0  0  0  0  0  0  0  0  0  0  0  0
    5.7883  -28.6306   -8.5195 C   0  0  0  0  0  0  0  0  0  0  0  0
    7.0197  -29.2037   -8.8370 C   0  0  0  0  0  0  0  0  0  0  0  0
    8.6652  -27.1150  -13.5481 C   0  0  0  0  0  0  0  0  0  0  0  0
    9.5369  -24.5979  -12.7173 C   0  0  0  0  0  0  0  0  0  0  0  0
    5.6221  -27.2478   -8.5964 C   0  0  0  0  0  0  0  0  0  0  0  0
    8.0849  -28.3941   -9.2313 C   0  0  0  0  0  0  0  0  0  0  0  0
    9.8617  -26.9940  -12.8325 C   0  0  0  0  0  0  0  0  0  0  0  0
   10.2999  -25.7322  -12.4053 C   0  0  0  0  0  0  0  0  0  0  0  0
    6.6873  -26.4381   -8.9907 C   0  0  0  0  0  0  0  0  0  0  0  0
    7.9187  -27.0112   -9.3081 C   0  0  0  0  0  0  0  0  0  0  0  0
   10.6869  -28.1626  -12.5428 C   0  0  0  0  0  0  0  0  0  0  0  0
   11.9144  -28.0200  -12.0274 C   0  0  0  0  0  0  0  0  0  0  0  0
    7.1942  -24.0442   -8.3364 C   0  0  0  0  0  0  0  0  0  0  0  0
   13.8130  -26.6260  -11.3060 C   0  0  0  0  0  0  0  0  0  0  0  0
   10.3686  -26.4667   -9.5162 C   0  0  0  0  0  0  0  0  0  0  0  0
    6.5678  -22.7091   -8.6695 C   0  0  0  0  0  0  0  0  0  0  0  0
    5.8501  -22.9753   -9.9776 C   0  0  0  0  0  0  0  0  0  0  0  0
    5.4434  -24.4298   -9.8653 C   0  0  0  0  0  0  0  0  0  0  0  0
   11.5651  -25.6120  -11.5761 C   0  0  1  0  0  0  0  0  0  0  0  0
   14.7015  -27.8483  -11.3374 C   0  0  0  0  0  0  0  0  0  0  0  0
   11.1943  -25.3442  -10.1083 C   0  0  0  0  0  0  0  0  0  0  0  0
    6.4924  -25.0269   -9.0616 N   0  0  0  0  0  0  0  0  0  0  0  0
   12.4635  -26.7972  -11.6630 N   0  0  0  0  0  0  0  0  0  0  0  0
    9.0143  -26.2110   -9.7107 N   0  0  0  0  0  0  0  0  0  0  0  0
    8.1018  -24.1608   -7.5260 O   0  0  0  0  0  0  0  0  0  0  0  0
   14.3037  -25.5401  -10.9816 O   0  0  0  0  0  0  0  0  0  0  0  0
   10.8717  -27.4363   -8.9582 O   0  0  0  0  0  0  0  0  0  0  0  0
    6.9851  -26.0766  -14.4068 H   0  0  0  0  0  0  0  0  0  0  0  0
    7.7626  -23.8398  -13.6742 H   0  0  0  0  0  0  0  0  0  0  0  0
    4.9591  -29.2612   -8.2125 H   0  0  0  0  0  0  0  0  0  0  0  0
    7.1490  -30.2804   -8.7771 H   0  0  0  0  0  0  0  0  0  0  0  0
    8.3146  -28.0871  -13.8863 H   0  0  0  0  0  0  0  0  0  0  0  0
    9.8612  -23.6120  -12.3941 H   0  0  0  0  0  0  0  0  0  0  0  0
    4.6574  -26.8132   -8.3464 H   0  0  0  0  0  0  0  0  0  0  0  0
    9.0396  -28.8528   -9.4761 H   0  0  0  0  0  0  0  0  0  0  0  0
   10.3152  -29.1445  -12.8153 H   0  0  0  0  0  0  0  0  0  0  0  0
   12.5275  -28.9041  -11.9044 H   0  0  0  0  0  0  0  0  0  0  0  0
    5.8678  -22.4411   -7.8719 H   0  0  0  0  0  0  0  0  0  0  0  0
    7.3312  -21.9343   -8.7735 H   0  0  0  0  0  0  0  0  0  0  0  0
    4.9962  -22.3088  -10.1281 H   0  0  0  0  0  0  0  0  0  0  0  0
    6.5408  -22.8419  -10.8191 H   0  0  0  0  0  0  0  0  0  0  0  0
    4.4943  -24.5424   -9.3285 H   0  0  0  0  0  0  0  0  0  0  0  0
    5.3750  -24.9186  -10.8426 H   0  0  0  0  0  0  0  0  0  0  0  0
   12.1377  -24.7543  -11.9537 H   0  0  0  0  0  0  0  0  0  0  0  0
   15.1422  -27.9371  -12.3236 H   0  0  0  0  0  0  0  0  0  0  0  0
   14.1027  -28.7245  -11.1156 H   0  0  0  0  0  0  0  0  0  0  0  0
   15.4784  -27.7375  -10.5895 H   0  0  0  0  0  0  0  0  0  0  0  0
   10.6281  -24.4144  -10.0585 H   0  0  0  0  0  0  0  0  0  0  0  0
   12.1136  -25.2303   -9.5342 H   0  0  0  0  0  0  0  0  0  0  0  0
    8.7692  -25.3516  -10.1982 H   0  0  0  0  0  0  0  0  0  0  0  0
  1  2  1  0  0  0  0
  1  5  2  0  0  0  0
  2  6  2  0  0  0  0
  3  4  1  0  0  0  0
  3  7  2  0  0  0  0
  4  8  2  0  0  0  0
  5  9  1  0  0  0  0
  6 10  1  0  0  0  0
  7 11  1  0  0  0  0
  8 12  1  0  0  0  0
  9 10  2  0  0  0  0
  9 13  1  0  0  0  0
 10 21  1  0  0  0  0
 11 12  2  0  0  0  0
 11 24  1  0  0  0  0
 12 26  1  0  0  0  0
 13 14  2  0  0  0  0
 14 25  1  0  0  0  0
 15 18  1  0  0  0  0
 15 24  1  0  0  0  0
 15 27  2  0  0  0  0
 16 22  1  0  0  0  0
 16 25  1  0  0  0  0
 16 28  2  0  0  0  0
 17 23  1  0  0  0  0
 17 26  1  0  0  0  0
 17 29  2  0  0  0  0
 18 19  1  0  0  0  0
 19 20  1  0  0  0  0
 20 24  1  0  0  0  0
 21 23  1  0  0  0  0
 21 25  1  0  0  0  0
  1 30  1  0  0  0  0
  2 31  1  0  0  0  0
  3 32  1  0  0  0  0
  4 33  1  0  0  0  0
  5 34  1  0  0  0  0
  6 35  1  0  0  0  0
  7 36  1  0  0  0  0
  8 37  1  0  0  0  0
 13 38  1  0  0  0  0
 14 39  1  0  0  0  0
 18 40  1  0  0  0  0
 18 41  1  0  0  0  0
 19 42  1  0  0  0  0
 19 43  1  0  0  0  0
 20 44  1  0  0  0  0
 20 45  1  0  0  0  0
 21 46  1  0  0  0  0
 22 47  1  0  0  0  0
 22 48  1  0  0  0  0
 22 49  1  0  0  0  0
 23 50  1  0  0  0  0
 23 51  1  0  0  0  0
 26 52  1  0  0  0  0
M  END
> <Hybrid2>
-3.2998547554016113

> <Hybrid2>
-2.930802

$$$$
C09253281
  -OEChem-02152218483D

 39 41  0     1  0  0  0  0  0999 V2000
   13.9780  -26.6954  -13.1319 C   0  0  0  0  0  0  0  0  0  0  0  0
   12.9521  -26.0084  -12.4209 C   0  0  0  0  0  0  0  0  0  0  0  0
   14.2400  -27.9356  -12.5926 C   0  0  0  0  0  0  0  0  0  0  0  0
   12.4688  -26.7498  -11.3651 C   0  0  0  0  0  0  0  0  0  0  0  0
    6.6703  -29.9751   -9.4190 C   0  0  0  0  0  0  0  0  0  0  0  0
    5.8469  -30.7715  -10.1093 C   0  0  0  0  0  0  0  0  0  0  0  0
   10.1712  -26.1564  -10.7454 C   0  0  0  0  0  0  0  0  0  0  0  0
    9.1338  -25.8011   -9.7487 C   0  0  0  0  0  0  0  0  0  0  0  0
    7.9001  -25.7679  -11.7811 C   0  0  0  0  0  0  0  0  0  0  0  0
   11.4422  -26.4038  -10.4248 C   0  0  0  0  0  0  0  0  0  0  0  0
    6.3881  -26.3832   -8.7004 C   0  0  0  0  0  0  0  0  0  0  0  0
    4.5506  -29.1259   -8.5806 C   0  0  0  0  0  0  0  0  0  0  0  0
    6.0512  -28.8455   -8.6474 C   0  0  2  0  0  0  0  0  0  0  0  0
    6.8859  -23.9349   -8.9143 C   0  0  0  0  0  0  0  0  0  0  0  0
    6.7074  -25.2467   -9.6626 C   0  0  1  0  0  0  0  0  0  0  0  0
    7.8981  -25.6007  -10.3894 N   0  0  0  0  0  0  0  0  0  0  0  0
    6.3028  -27.6074   -9.3487 N   0  0  0  0  0  0  0  0  0  0  0  0
    9.3618  -25.7047   -8.5501 O   0  0  0  0  0  0  0  0  0  0  0  0
    6.2622  -26.2207   -7.4885 O   0  0  0  0  0  0  0  0  0  0  0  0
    3.3898  -31.3401   -9.4393 O   0  0  0  0  0  0  0  0  0  0  0  0
    3.8180  -29.4721  -11.0943 O   0  0  0  0  0  0  0  0  0  0  0  0
    6.6127  -25.6012  -12.8335 S   0  0  0  0  0  0  0  0  0  0  0  0
   13.2512  -28.2674  -11.2344 S   0  0  0  0  0  0  0  0  0  0  0  0
    9.5175  -26.2000  -12.3305 S   0  0  0  0  0  0  0  0  0  0  0  0
    4.2067  -30.2519   -9.9363 S   0  0  0  0  0  0  0  0  0  0  0  0
   14.4981  -26.2994  -13.9945 H   0  0  0  0  0  0  0  0  0  0  0  0
   12.5928  -25.0197  -12.6783 H   0  0  0  0  0  0  0  0  0  0  0  0
   14.9651  -28.6622  -12.9307 H   0  0  0  0  0  0  0  0  0  0  0  0
    7.7423  -30.1323   -9.4138 H   0  0  0  0  0  0  0  0  0  0  0  0
    6.1446  -31.6192  -10.7091 H   0  0  0  0  0  0  0  0  0  0  0  0
   11.7136  -26.3662   -9.3695 H   0  0  0  0  0  0  0  0  0  0  0  0
    4.3012  -29.6523   -7.6528 H   0  0  0  0  0  0  0  0  0  0  0  0
    3.9218  -28.2363   -8.6689 H   0  0  0  0  0  0  0  0  0  0  0  0
    6.4686  -28.7499   -7.6481 H   0  0  0  0  0  0  0  0  0  0  0  0
    7.6884  -24.0079   -8.1712 H   0  0  0  0  0  0  0  0  0  0  0  0
    7.1425  -23.1194   -9.5986 H   0  0  0  0  0  0  0  0  0  0  0  0
    5.9671  -23.6597   -8.3853 H   0  0  0  0  0  0  0  0  0  0  0  0
    5.9023  -25.1545  -10.3998 H   0  0  0  0  0  0  0  0  0  0  0  0
    6.3806  -27.6434  -10.3608 H   0  0  0  0  0  0  0  0  0  0  0  0
  1  2  1  0  0  0  0
  1  3  2  0  0  0  0
  2  4  2  0  0  0  0
  3 23  1  0  0  0  0
  4 10  1  0  0  0  0
  4 23  1  0  0  0  0
  5  6  2  0  0  0  0
  5 13  1  0  0  0  0
  6 25  1  0  0  0  0
  7  8  1  0  0  0  0
  7 10  2  0  0  0  0
  7 24  1  0  0  0  0
  8 16  1  0  0  0  0
  8 18  2  0  0  0  0
  9 16  1  0  0  0  0
  9 22  2  0  0  0  0
  9 24  1  0  0  0  0
 11 15  1  0  0  0  0
 11 17  1  0  0  0  0
 11 19  2  0  0  0  0
 12 13  1  0  0  0  0
 12 25  1  0  0  0  0
 13 17  1  0  0  0  0
 14 15  1  0  0  0  0
 15 16  1  0  0  0  0
 20 25  2  0  0  0  0
 21 25  2  0  0  0  0
  1 26  1  0  0  0  0
  2 27  1  0  0  0  0
  3 28  1  0  0  0  0
  5 29  1  0  0  0  0
  6 30  1  0  0  0  0
 10 31  1  0  0  0  0
 12 32  1  0  0  0  0
 12 33  1  0  0  0  0
 13 34  1  0  0  0  0
 14 35  1  0  0  0  0
 14 36  1  0  0  0  0
 14 37  1  0  0  0  0
 15 38  1  0  0  0  0
 17 39  1  0  0  0  0
M  END
> <Hybrid2>
-1.2179299592971802

> <Hybrid2>
-1.217930

$$$$
C09253281
  -OEChem-02152218483D

 39 41  0     1  0  0  0  0  0999 V2000
   15.0841  -27.4995  -13.2463 C   0  0  0  0  0  0  0  0  0  0  0  0
   14.0713  -26.6594  -12.6998 C   0  0  0  0  0  0  0  0  0  0  0  0
   15.3064  -28.6147  -12.4688 C   0  0  0  0  0  0  0  0  0  0  0  0
   13.5579  -27.1646  -11.5255 C   0  0  0  0  0  0  0  0  0  0  0  0
    7.6543  -29.7917   -9.0643 C   0  0  0  0  0  0  0  0  0  0  0  0
    6.8153  -30.6877   -9.5954 C   0  0  0  0  0  0  0  0  0  0  0  0
   11.2723  -26.4018  -11.0684 C   0  0  0  0  0  0  0  0  0  0  0  0
   10.2362  -25.8298  -10.1767 C   0  0  0  0  0  0  0  0  0  0  0  0
    9.0224  -26.1680  -12.1931 C   0  0  0  0  0  0  0  0  0  0  0  0
   12.5329  -26.6133  -10.6869 C   0  0  0  0  0  0  0  0  0  0  0  0
    7.4659  -26.1226   -9.0737 C   0  0  0  0  0  0  0  0  0  0  0  0
    5.5516  -28.7395   -8.4407 C   0  0  0  0  0  0  0  0  0  0  0  0
    7.0600  -28.5163   -8.5400 C   0  0  2  0  0  0  0  0  0  0  0  0
    8.0338  -23.7786   -9.7599 C   0  0  0  0  0  0  0  0  0  0  0  0
    7.8255  -25.2075  -10.2367 C   0  0  1  0  0  0  0  0  0  0  0  0
    9.0124  -25.7287  -10.8620 N   0  0  0  0  0  0  0  0  0  0  0  0
    7.3524  -27.4483   -9.4684 N   0  0  0  0  0  0  0  0  0  0  0  0
   10.4559  -25.5040   -9.0175 O   0  0  0  0  0  0  0  0  0  0  0  0
    7.3337  -25.7203   -7.9197 O   0  0  0  0  0  0  0  0  0  0  0  0
    4.3373  -31.0495   -8.8617 O   0  0  0  0  0  0  0  0  0  0  0  0
    4.8325  -29.5575  -10.8468 O   0  0  0  0  0  0  0  0  0  0  0  0
    7.7498  -26.1800  -13.2761 S   0  0  0  0  0  0  0  0  0  0  0  0
   14.2965  -28.6458  -11.0863 S   0  0  0  0  0  0  0  0  0  0  0  0
   10.6321  -26.7415  -12.6229 S   0  0  0  0  0  0  0  0  0  0  0  0
    5.1887  -30.1023   -9.5521 S   0  0  0  0  0  0  0  0  0  0  0  0
   15.6228  -27.2955  -14.1625 H   0  0  0  0  0  0  0  0  0  0  0  0
   13.7421  -25.7323  -13.1526 H   0  0  0  0  0  0  0  0  0  0  0  0
   16.0140  -29.4121  -12.6462 H   0  0  0  0  0  0  0  0  0  0  0  0
    8.7214  -29.9721   -9.0126 H   0  0  0  0  0  0  0  0  0  0  0  0
    7.0947  -31.6446  -10.0115 H   0  0  0  0  0  0  0  0  0  0  0  0
   12.7957  -26.3745   -9.6561 H   0  0  0  0  0  0  0  0  0  0  0  0
    5.2792  -29.0653   -7.4309 H   0  0  0  0  0  0  0  0  0  0  0  0
    4.9487  -27.8692   -8.7122 H   0  0  0  0  0  0  0  0  0  0  0  0
    7.4709  -28.2356   -7.5734 H   0  0  0  0  0  0  0  0  0  0  0  0
    8.8272  -23.7236   -9.0055 H   0  0  0  0  0  0  0  0  0  0  0  0
    8.3192  -23.1215  -10.5880 H   0  0  0  0  0  0  0  0  0  0  0  0
    7.1183  -23.3808   -9.3089 H   0  0  0  0  0  0  0  0  0  0  0  0
    7.0301  -25.2425  -10.9892 H   0  0  0  0  0  0  0  0  0  0  0  0
    7.4384  -27.6858  -10.4523 H   0  0  0  0  0  0  0  0  0  0  0  0
  1  2  1  0  0  0  0
  1  3  2  0  0  0  0
  2  4  2  0  0  0  0
  3 23  1  0  0  0  0
  4 10  1  0  0  0  0
  4 23  1  0  0  0  0
  5  6  2  0  0  0  0
  5 13  1  0  0  0  0
  6 25  1  0  0  0  0
  7  8  1  0  0  0  0
  7 10  2  0  0  0  0
  7 24  1  0  0  0  0
  8 16  1  0  0  0  0
  8 18  2  0  0  0  0
  9 16  1  0  0  0  0
  9 22  2  0  0  0  0
  9 24  1  0  0  0  0
 11 15  1  0  0  0  0
 11 17  1  0  0  0  0
 11 19  2  0  0  0  0
 12 13  1  0  0  0  0
 12 25  1  0  0  0  0
 13 17  1  0  0  0  0
 14 15  1  0  0  0  0
 15 16  1  0  0  0  0
 20 25  2  0  0  0  0
 21 25  2  0  0  0  0
  1 26  1  0  0  0  0
  2 27  1  0  0  0  0
  3 28  1  0  0  0  0
  5 29  1  0  0  0  0
  6 30  1  0  0  0  0
 10 31  1  0  0  0  0
 12 32  1  0  0  0  0
 12 33  1  0  0  0  0
 13 34  1  0  0  0  0
 14 35  1  0  0  0  0
 14 36  1  0  0  0  0
 14 37  1  0  0  0  0
 15 38  1  0  0  0  0
 17 39  1  0  0  0  0
M  END
> <Hybrid2>
-1.2179299592971802

> <Hybrid2>
-1.135357

$$$$
C04260281
  -OEChem-02152218483D

 56 58  0     1  0  0  0  0  0999 V2000
   10.3346  -25.9763  -12.1876 C   0  0  0  0  0  0  0  0  0  0  0  0
    8.9397  -25.6367  -12.1958 C   0  0  0  0  0  0  0  0  0  0  0  0
   11.1449  -25.5372  -11.2188 C   0  0  0  0  0  0  0  0  0  0  0  0
    8.4100  -24.8705  -11.2273 C   0  0  0  0  0  0  0  0  0  0  0  0
   10.5986  -24.6611  -10.1343 C   0  0  0  0  0  0  0  0  0  0  0  0
    6.8073  -26.7570   -8.2427 C   0  0  0  0  0  0  0  0  0  0  0  0
   12.9967  -27.0311  -11.6865 C   0  0  0  0  0  0  0  0  0  0  0  0
    6.6542  -23.1920  -10.6060 C   0  0  0  0  0  0  0  0  0  0  0  0
    6.1630  -25.6457  -10.4369 C   0  0  0  0  0  0  0  0  0  0  0  0
    8.6922  -23.4401   -9.1973 C   0  0  0  0  0  0  0  0  0  0  0  0
    6.4512  -24.3152   -8.3649 C   0  0  0  0  0  0  0  0  0  0  0  0
    6.9254  -24.5615  -11.2232 C   0  0  2  0  0  0  0  0  0  0  0  0
    7.1741  -23.2252   -9.1738 C   0  0  2  0  0  0  0  0  0  0  0  0
    6.2965  -29.6437   -7.4869 C   0  0  0  0  0  0  0  0  0  0  0  0
    7.2127  -30.3362   -9.7197 C   0  0  0  0  0  0  0  0  0  0  0  0
    5.2097  -28.8461   -9.5918 C   0  0  0  0  0  0  0  0  0  0  0  0
   14.5291  -27.9315   -8.8960 C   0  0  0  0  0  0  0  0  0  0  0  0
    7.4344  -27.9221   -8.9656 C   0  0  0  0  0  0  0  0  0  0  0  0
   14.4953  -27.1252  -11.5161 C   0  0  0  0  0  0  0  0  0  0  0  0
    6.5590  -29.1878   -8.9323 C   0  0  0  0  0  0  0  0  0  0  0  0
    9.2205  -24.3719  -10.2027 N   0  0  0  0  0  0  0  0  0  0  0  0
    6.5168  -25.6283   -9.0097 N   0  0  0  0  0  0  0  0  0  0  0  0
   12.4717  -25.8505  -11.1812 N   0  0  0  0  0  0  0  0  0  0  0  0
   11.3543  -24.2342   -9.2602 O   0  0  0  0  0  0  0  0  0  0  0  0
    6.5886  -26.8461   -7.0318 O   0  0  0  0  0  0  0  0  0  0  0  0
   12.3496  -27.9368  -12.2105 O   0  0  0  0  0  0  0  0  0  0  0  0
   14.8825  -28.5978  -10.5396 S   0  0  0  0  0  0  0  0  0  0  0  0
   10.6986  -26.6087  -12.9912 H   0  0  0  0  0  0  0  0  0  0  0  0
    8.3308  -26.0419  -12.9972 H   0  0  0  0  0  0  0  0  0  0  0  0
    7.1511  -22.3999  -11.1799 H   0  0  0  0  0  0  0  0  0  0  0  0
    5.5797  -22.9718  -10.6182 H   0  0  0  0  0  0  0  0  0  0  0  0
    5.0831  -25.4605  -10.4945 H   0  0  0  0  0  0  0  0  0  0  0  0
    6.3384  -26.6264  -10.8851 H   0  0  0  0  0  0  0  0  0  0  0  0
    9.1777  -22.4769   -9.4065 H   0  0  0  0  0  0  0  0  0  0  0  0
    9.0543  -23.7499   -8.2089 H   0  0  0  0  0  0  0  0  0  0  0  0
    6.8556  -24.3626   -7.3482 H   0  0  0  0  0  0  0  0  0  0  0  0
    5.3869  -24.0644   -8.2732 H   0  0  0  0  0  0  0  0  0  0  0  0
    6.5461  -24.5519  -12.2534 H   0  0  0  0  0  0  0  0  0  0  0  0
    6.9689  -22.2597   -8.6951 H   0  0  0  0  0  0  0  0  0  0  0  0
    5.8300  -28.8443   -6.8999 H   0  0  0  0  0  0  0  0  0  0  0  0
    7.2298  -29.9228   -6.9850 H   0  0  0  0  0  0  0  0  0  0  0  0
    5.6249  -30.5082   -7.4513 H   0  0  0  0  0  0  0  0  0  0  0  0
    7.4125  -30.0412  -10.7560 H   0  0  0  0  0  0  0  0  0  0  0  0
    8.1621  -30.6457   -9.2698 H   0  0  0  0  0  0  0  0  0  0  0  0
    6.5611  -31.2174   -9.7449 H   0  0  0  0  0  0  0  0  0  0  0  0
    5.3479  -28.5149  -10.6273 H   0  0  0  0  0  0  0  0  0  0  0  0
    4.6963  -28.0436   -9.0502 H   0  0  0  0  0  0  0  0  0  0  0  0
    4.5431  -29.7159   -9.6073 H   0  0  0  0  0  0  0  0  0  0  0  0
   14.7091  -28.6975   -8.1378 H   0  0  0  0  0  0  0  0  0  0  0  0
   13.4848  -27.6141   -8.8410 H   0  0  0  0  0  0  0  0  0  0  0  0
   15.1747  -27.0727   -8.6970 H   0  0  0  0  0  0  0  0  0  0  0  0
    8.4018  -28.1030   -8.4912 H   0  0  0  0  0  0  0  0  0  0  0  0
    7.6115  -27.5963   -9.9933 H   0  0  0  0  0  0  0  0  0  0  0  0
   14.9039  -26.2397  -11.0210 H   0  0  0  0  0  0  0  0  0  0  0  0
   14.9565  -27.2047  -12.5051 H   0  0  0  0  0  0  0  0  0  0  0  0
   13.1111  -25.1822  -10.7596 H   0  0  0  0  0  0  0  0  0  0  0  0
  1  2  1  0  0  0  0
  1  3  2  0  0  0  0
  2  4  2  0  0  0  0
  3  5  1  0  0  0  0
  3 23  1  0  0  0  0
  4 12  1  0  0  0  0
  4 21  1  0  0  0  0
  5 21  1  0  0  0  0
  5 24  2  0  0  0  0
  6 18  1  0  0  0  0
  6 22  1  0  0  0  0
  6 25  2  0  0  0  0
  7 19  1  0  0  0  0
  7 23  1  0  0  0  0
  7 26  2  0  0  0  0
  8 12  1  0  0  0  0
  8 13  1  0  0  0  0
  9 12  1  0  0  0  0
  9 22  1  0  0  0  0
 10 13  1  0  0  0  0
 10 21  1  0  0  0  0
 11 13  1  0  0  0  0
 11 22  1  0  0  0  0
 14 20  1  0  0  0  0
 15 20  1  0  0  0  0
 16 20  1  0  0  0  0
 17 27  1  0  0  0  0
 18 20  1  0  0  0  0
 19 27  1  0  0  0  0
  1 28  1  0  0  0  0
  2 29  1  0  0  0  0
  8 30  1  0  0  0  0
  8 31  1  0  0  0  0
  9 32  1  0  0  0  0
  9 33  1  0  0  0  0
 10 34  1  0  0  0  0
 10 35  1  0  0  0  0
 11 36  1  0  0  0  0
 11 37  1  0  0  0  0
 12 38  1  0  0  0  0
 13 39  1  0  0  0  0
 14 40  1  0  0  0  0
 14 41  1  0  0  0  0
 14 42  1  0  0  0  0
 15 43  1  0  0  0  0
 15 44  1  0  0  0  0
 15 45  1  0  0  0  0
 16 46  1  0  0  0  0
 16 47  1  0  0  0  0
 16 48  1  0  0  0  0
 17 49  1  0  0  0  0
 17 50  1  0  0  0  0
 17 51  1  0  0  0  0
 18 52  1  0  0  0  0
 18 53  1  0  0  0  0
 19 54  1  0  0  0  0
 19 55  1  0  0  0  0
 23 56  1  0  0  0  0
M  END
> <Hybrid2>
-2.3894195556640625

> <Hybrid2>
-2.389420

$$$$
C04260281
  -OEChem-02152218483D

 56 58  0     1  0  0  0  0  0999 V2000
   10.2764  -26.3580  -11.9365 C   0  0  0  0  0  0  0  0  0  0  0  0
    8.9923  -25.7342  -12.0887 C   0  0  0  0  0  0  0  0  0  0  0  0
   10.9559  -26.2647  -10.7886 C   0  0  0  0  0  0  0  0  0  0  0  0
    8.4369  -25.0424  -11.0796 C   0  0  0  0  0  0  0  0  0  0  0  0
   10.3824  -25.4824   -9.6479 C   0  0  0  0  0  0  0  0  0  0  0  0
    5.9889  -27.0094   -8.8049 C   0  0  0  0  0  0  0  0  0  0  0  0
   13.0815  -27.0614  -11.6411 C   0  0  0  0  0  0  0  0  0  0  0  0
    6.9270  -23.1552  -10.4122 C   0  0  0  0  0  0  0  0  0  0  0  0
    5.9792  -25.4433  -10.8080 C   0  0  0  0  0  0  0  0  0  0  0  0
    8.5855  -24.0559   -8.7880 C   0  0  0  0  0  0  0  0  0  0  0  0
    6.1078  -24.5612   -8.4946 C   0  0  0  0  0  0  0  0  0  0  0  0
    7.0583  -24.4312  -11.2395 C   0  0  2  0  0  0  0  0  0  0  0  0
    7.1540  -23.5315   -8.9529 C   0  0  2  0  0  0  0  0  0  0  0  0
    6.9623  -29.8099   -8.1925 C   0  0  0  0  0  0  0  0  0  0  0  0
    5.5119  -30.6655  -10.0549 C   0  0  0  0  0  0  0  0  0  0  0  0
    4.4882  -29.4616   -8.1181 C   0  0  0  0  0  0  0  0  0  0  0  0
   16.8945  -27.5415  -10.1657 C   0  0  0  0  0  0  0  0  0  0  0  0
    5.8336  -28.1642   -9.7619 C   0  0  0  0  0  0  0  0  0  0  0  0
   14.3519  -27.7325  -11.1729 C   0  0  0  0  0  0  0  0  0  0  0  0
    5.7158  -29.5221   -9.0464 C   0  0  0  0  0  0  0  0  0  0  0  0
    9.1167  -24.9010   -9.8659 N   0  0  0  0  0  0  0  0  0  0  0  0
    6.0557  -25.7349   -9.3687 N   0  0  0  0  0  0  0  0  0  0  0  0
   12.1734  -26.8534  -10.6130 N   0  0  0  0  0  0  0  0  0  0  0  0
   11.0247  -25.3739   -8.6024 O   0  0  0  0  0  0  0  0  0  0  0  0
    6.0550  -27.2349   -7.5939 O   0  0  0  0  0  0  0  0  0  0  0  0
   12.9080  -26.7626  -12.8219 O   0  0  0  0  0  0  0  0  0  0  0  0
   15.5287  -26.4611  -10.6527 S   0  0  0  0  0  0  0  0  0  0  0  0
   10.6650  -26.9128  -12.7846 H   0  0  0  0  0  0  0  0  0  0  0  0
    8.4820  -25.8648  -13.0372 H   0  0  0  0  0  0  0  0  0  0  0  0
    7.6573  -22.4032  -10.7361 H   0  0  0  0  0  0  0  0  0  0  0  0
    5.9315  -22.7137  -10.5433 H   0  0  0  0  0  0  0  0  0  0  0  0
    4.9807  -25.0270  -10.9908 H   0  0  0  0  0  0  0  0  0  0  0  0
    6.0562  -26.3521  -11.4093 H   0  0  0  0  0  0  0  0  0  0  0  0
    9.2670  -23.1962   -8.7266 H   0  0  0  0  0  0  0  0  0  0  0  0
    8.6936  -24.5927   -7.8371 H   0  0  0  0  0  0  0  0  0  0  0  0
    6.2987  -24.8588   -7.4580 H   0  0  0  0  0  0  0  0  0  0  0  0
    5.1080  -24.1094   -8.5175 H   0  0  0  0  0  0  0  0  0  0  0  0
    6.8873  -24.1732  -12.2928 H   0  0  0  0  0  0  0  0  0  0  0  0
    7.0398  -22.6361   -8.3295 H   0  0  0  0  0  0  0  0  0  0  0  0
    7.1335  -29.0102   -7.4628 H   0  0  0  0  0  0  0  0  0  0  0  0
    7.8596  -29.8875   -8.8167 H   0  0  0  0  0  0  0  0  0  0  0  0
    6.8613  -30.7457   -7.6323 H   0  0  0  0  0  0  0  0  0  0  0  0
    4.6290  -30.4887  -10.6795 H   0  0  0  0  0  0  0  0  0  0  0  0
    6.3757  -30.7777  -10.7189 H   0  0  0  0  0  0  0  0  0  0  0  0
    5.3690  -31.6232   -9.5410 H   0  0  0  0  0  0  0  0  0  0  0  0
    3.5728  -29.2577   -8.6852 H   0  0  0  0  0  0  0  0  0  0  0  0
    4.5986  -28.6715   -7.3668 H   0  0  0  0  0  0  0  0  0  0  0  0
    4.3452  -30.4088   -7.5857 H   0  0  0  0  0  0  0  0  0  0  0  0
   17.7345  -26.9408   -9.8084 H   0  0  0  0  0  0  0  0  0  0  0  0
   17.2207  -28.1364  -11.0224 H   0  0  0  0  0  0  0  0  0  0  0  0
   16.5700  -28.2130   -9.3670 H   0  0  0  0  0  0  0  0  0  0  0  0
    6.7034  -28.1445  -10.4226 H   0  0  0  0  0  0  0  0  0  0  0  0
    4.9429  -27.9592  -10.3604 H   0  0  0  0  0  0  0  0  0  0  0  0
   14.8001  -28.3466  -11.9591 H   0  0  0  0  0  0  0  0  0  0  0  0
   14.1130  -28.3844  -10.3272 H   0  0  0  0  0  0  0  0  0  0  0  0
   12.4298  -27.1565   -9.6772 H   0  0  0  0  0  0  0  0  0  0  0  0
  1  2  1  0  0  0  0
  1  3  2  0  0  0  0
  2  4  2  0  0  0  0
  3  5  1  0  0  0  0
  3 23  1  0  0  0  0
  4 12  1  0  0  0  0
  4 21  1  0  0  0  0
  5 21  1  0  0  0  0
  5 24  2  0  0  0  0
  6 18  1  0  0  0  0
  6 22  1  0  0  0  0
  6 25  2  0  0  0  0
  7 19  1  0  0  0  0
  7 23  1  0  0  0  0
  7 26  2  0  0  0  0
  8 12  1  0  0  0  0
  8 13  1  0  0  0  0
  9 12  1  0  0  0  0
  9 22  1  0  0  0  0
 10 13  1  0  0  0  0
 10 21  1  0  0  0  0
 11 13  1  0  0  0  0
 11 22  1  0  0  0  0
 14 20  1  0  0  0  0
 15 20  1  0  0  0  0
 16 20  1  0  0  0  0
 17 27  1  0  0  0  0
 18 20  1  0  0  0  0
 19 27  1  0  0  0  0
  1 28  1  0  0  0  0
  2 29  1  0  0  0  0
  8 30  1  0  0  0  0
  8 31  1  0  0  0  0
  9 32  1  0  0  0  0
  9 33  1  0  0  0  0
 10 34  1  0  0  0  0
 10 35  1  0  0  0  0
 11 36  1  0  0  0  0
 11 37  1  0  0  0  0
 12 38  1  0  0  0  0
 13 39  1  0  0  0  0
 14 40  1  0  0  0  0
 14 41  1  0  0  0  0
 14 42  1  0  0  0  0
 15 43  1  0  0  0  0
 15 44  1  0  0  0  0
 15 45  1  0  0  0  0
 16 46  1  0  0  0  0
 16 47  1  0  0  0  0
 16 48  1  0  0  0  0
 17 49  1  0  0  0  0
 17 50  1  0  0  0  0
 17 51  1  0  0  0  0
 18 52  1  0  0  0  0
 18 53  1  0  0  0  0
 19 54  1  0  0  0  0
 19 55  1  0  0  0  0
 23 56  1  0  0  0  0
M  END
> <Hybrid2>
-2.3894195556640625

> <Hybrid2>
-2.342159

$$$$
C12781419
  -OEChem-02152218483D

 53 55  0     1  0  0  0  0  0999 V2000
   10.7671  -28.5179   -8.7221 C   0  0  0  0  0  0  0  0  0  0  0  0
    9.5286  -29.0371   -9.0932 C   0  0  0  0  0  0  0  0  0  0  0  0
   11.0116  -27.1486   -8.8287 C   0  0  0  0  0  0  0  0  0  0  0  0
    8.5337  -28.1892   -9.5798 C   0  0  0  0  0  0  0  0  0  0  0  0
   12.8357  -26.3458  -12.7937 C   0  0  0  0  0  0  0  0  0  0  0  0
   11.9028  -28.5290  -12.3461 C   0  0  0  0  0  0  0  0  0  0  0  0
   13.9196  -26.6392  -11.9663 C   0  0  0  0  0  0  0  0  0  0  0  0
   12.9867  -28.8224  -11.5186 C   0  0  0  0  0  0  0  0  0  0  0  0
   10.0140  -26.2929   -9.3095 C   0  0  0  0  0  0  0  0  0  0  0  0
    8.7699  -26.8118   -9.6961 C   0  0  0  0  0  0  0  0  0  0  0  0
   11.8273  -27.2906  -12.9836 C   0  0  0  0  0  0  0  0  0  0  0  0
   13.9951  -27.8775  -11.3287 C   0  0  0  0  0  0  0  0  0  0  0  0
   10.2338  -24.8522   -9.3919 C   0  0  0  0  0  0  0  0  0  0  0  0
    9.2207  -24.0227   -9.6715 C   0  0  0  0  0  0  0  0  0  0  0  0
    6.8311  -23.5803  -10.0741 C   0  0  0  0  0  0  0  0  0  0  0  0
    8.9470  -25.8171  -12.4784 C   0  0  0  0  0  0  0  0  0  0  0  0
    7.7135  -25.8899  -10.2759 C   0  0  2  0  0  0  0  0  0  0  0  0
    7.0780  -22.1100   -9.8260 C   0  0  0  0  0  0  0  0  0  0  0  0
   10.5350  -27.9356  -15.0603 C   0  0  0  0  0  0  0  0  0  0  0  0
   14.8420  -27.6957   -8.6823 C   0  0  0  0  0  0  0  0  0  0  0  0
    7.6288  -26.0972  -11.7970 C   0  0  0  0  0  0  0  0  0  0  0  0
   10.6507  -26.9723  -13.8808 C   0  0  1  0  0  0  0  0  0  0  0  0
    7.9332  -24.4478   -9.9735 N   0  0  0  0  0  0  0  0  0  0  0  0
    9.4116  -26.9458  -13.1378 N   0  0  0  0  0  0  0  0  0  0  0  0
    5.6855  -23.9558  -10.3425 O   0  0  0  0  0  0  0  0  0  0  0  0
    9.5166  -24.7297  -12.4456 O   0  0  0  0  0  0  0  0  0  0  0  0
   15.5008  -29.6935  -10.2473 O   0  0  0  0  0  0  0  0  0  0  0  0
   16.4839  -27.4163  -10.6873 O   0  0  0  0  0  0  0  0  0  0  0  0
   15.3528  -28.2458  -10.2947 S   0  0  0  0  0  0  0  0  0  0  0  0
   11.5417  -29.1794   -8.3450 H   0  0  0  0  0  0  0  0  0  0  0  0
    9.3388  -30.1031   -9.0082 H   0  0  0  0  0  0  0  0  0  0  0  0
   11.9807  -26.7596   -8.5263 H   0  0  0  0  0  0  0  0  0  0  0  0
    7.5761  -28.6096   -9.8760 H   0  0  0  0  0  0  0  0  0  0  0  0
   12.7852  -25.3782  -13.2860 H   0  0  0  0  0  0  0  0  0  0  0  0
   11.1216  -29.2711  -12.4878 H   0  0  0  0  0  0  0  0  0  0  0  0
   14.6996  -25.8957  -11.8247 H   0  0  0  0  0  0  0  0  0  0  0  0
   13.0354  -29.7902  -11.0264 H   0  0  0  0  0  0  0  0  0  0  0  0
   11.2172  -24.4600   -9.1558 H   0  0  0  0  0  0  0  0  0  0  0  0
    9.4048  -22.9560   -9.6414 H   0  0  0  0  0  0  0  0  0  0  0  0
    6.7462  -26.1614   -9.8323 H   0  0  0  0  0  0  0  0  0  0  0  0
    7.3328  -21.6330  -10.7653 H   0  0  0  0  0  0  0  0  0  0  0  0
    7.8940  -22.0044   -9.1200 H   0  0  0  0  0  0  0  0  0  0  0  0
    6.1784  -21.6670   -9.4139 H   0  0  0  0  0  0  0  0  0  0  0  0
   10.4121  -28.9682  -14.7158 H   0  0  0  0  0  0  0  0  0  0  0  0
    9.6691  -27.6798  -15.6814 H   0  0  0  0  0  0  0  0  0  0  0  0
   11.4179  -27.8983  -15.7083 H   0  0  0  0  0  0  0  0  0  0  0  0
   15.6505  -27.8967   -7.9777 H   0  0  0  0  0  0  0  0  0  0  0  0
   14.6362  -26.6254   -8.7328 H   0  0  0  0  0  0  0  0  0  0  0  0
   13.9429  -28.2454   -8.3998 H   0  0  0  0  0  0  0  0  0  0  0  0
    6.8669  -25.4288  -12.1970 H   0  0  0  0  0  0  0  0  0  0  0  0
    7.3332  -27.1276  -11.9913 H   0  0  0  0  0  0  0  0  0  0  0  0
   10.7711  -25.9600  -14.2859 H   0  0  0  0  0  0  0  0  0  0  0  0
    8.8541  -27.7940  -13.0964 H   0  0  0  0  0  0  0  0  0  0  0  0
  1  2  1  0  0  0  0
  1  3  2  0  0  0  0
  2  4  2  0  0  0  0
  3  9  1  0  0  0  0
  4 10  1  0  0  0  0
  5  7  2  0  0  0  0
  5 11  1  0  0  0  0
  6  8  1  0  0  0  0
  6 11  2  0  0  0  0
  7 12  1  0  0  0  0
  8 12  2  0  0  0  0
  9 10  2  0  0  0  0
  9 13  1  0  0  0  0
 10 17  1  0  0  0  0
 11 22  1  0  0  0  0
 12 29  1  0  0  0  0
 13 14  2  0  0  0  0
 14 23  1  0  0  0  0
 15 18  1  0  0  0  0
 15 23  1  0  0  0  0
 15 25  2  0  0  0  0
 16 21  1  0  0  0  0
 16 24  1  0  0  0  0
 16 26  2  0  0  0  0
 17 21  1  0  0  0  0
 17 23  1  0  0  0  0
 19 22  1  0  0  0  0
 20 29  1  0  0  0  0
 22 24  1  0  0  0  0
 27 29  2  0  0  0  0
 28 29  2  0  0  0  0
  1 30  1  0  0  0  0
  2 31  1  0  0  0  0
  3 32  1  0  0  0  0
  4 33  1  0  0  0  0
  5 34  1  0  0  0  0
  6 35  1  0  0  0  0
  7 36  1  0  0  0  0
  8 37  1  0  0  0  0
 13 38  1  0  0  0  0
 14 39  1  0  0  0  0
 17 40  1  0  0  0  0
 18 41  1  0  0  0  0
 18 42  1  0  0  0  0
 18 43  1  0  0  0  0
 19 44  1  0  0  0  0
 19 45  1  0  0  0  0
 19 46  1  0  0  0  0
 20 47  1  0  0  0  0
 20 48  1  0  0  0  0
 20 49  1  0  0  0  0
 21 50  1  0  0  0  0
 21 51  1  0  0  0  0
 22 52  1  0  0  0  0
 24 53  1  0  0  0  0
M  END
> <Hybrid2>
0.040756165981292725

> <Hybrid2>
0.040756

$$$$
C12781419
  -OEChem-02152218483D

 53 55  0     1  0  0  0  0  0999 V2000
    9.0157  -24.6880  -12.9270 C   0  0  0  0  0  0  0  0  0  0  0  0
    9.1001  -25.7827  -13.7847 C   0  0  0  0  0  0  0  0  0  0  0  0
    9.8903  -24.5780  -11.8458 C   0  0  0  0  0  0  0  0  0  0  0  0
   10.0543  -26.7747  -13.5587 C   0  0  0  0  0  0  0  0  0  0  0  0
    7.9735  -26.4126   -8.2886 C   0  0  0  0  0  0  0  0  0  0  0  0
    6.9672  -26.7259  -10.4625 C   0  0  0  0  0  0  0  0  0  0  0  0
    7.5337  -25.0890   -8.2757 C   0  0  0  0  0  0  0  0  0  0  0  0
    6.5273  -25.4023  -10.4497 C   0  0  0  0  0  0  0  0  0  0  0  0
   10.8541  -25.5670  -11.6191 C   0  0  0  0  0  0  0  0  0  0  0  0
   10.9352  -26.6772  -12.4721 C   0  0  0  0  0  0  0  0  0  0  0  0
    7.6903  -27.2311   -9.3820 C   0  0  0  0  0  0  0  0  0  0  0  0
    6.8105  -24.5838   -9.3562 C   0  0  0  0  0  0  0  0  0  0  0  0
   11.8053  -25.4526  -10.5178 C   0  0  0  0  0  0  0  0  0  0  0  0
   12.8383  -26.2986  -10.4182 C   0  0  0  0  0  0  0  0  0  0  0  0
   14.2264  -28.1353  -11.2943 C   0  0  0  0  0  0  0  0  0  0  0  0
   10.4788  -28.6646  -10.3264 C   0  0  0  0  0  0  0  0  0  0  0  0
   11.9394  -27.7782  -12.1863 C   0  0  2  0  0  0  0  0  0  0  0  0
   15.3197  -27.7500  -10.3246 C   0  0  0  0  0  0  0  0  0  0  0  0
    7.0178  -29.6671   -9.4942 C   0  0  0  0  0  0  0  0  0  0  0  0
    7.5870  -22.0111  -10.0854 C   0  0  0  0  0  0  0  0  0  0  0  0
   11.2106  -29.0004  -11.6040 C   0  0  0  0  0  0  0  0  0  0  0  0
    8.1681  -28.6671   -9.3967 C   0  0  1  0  0  0  0  0  0  0  0  0
   13.0470  -27.3696  -11.2776 N   0  0  0  0  0  0  0  0  0  0  0  0
    9.1178  -28.8972  -10.4613 N   0  0  0  0  0  0  0  0  0  0  0  0
   14.4143  -29.0880  -12.0574 O   0  0  0  0  0  0  0  0  0  0  0  0
   11.0300  -28.2454   -9.3123 O   0  0  0  0  0  0  0  0  0  0  0  0
    5.1004  -22.8321  -10.2173 O   0  0  0  0  0  0  0  0  0  0  0  0
    6.1559  -22.4783   -7.9575 O   0  0  0  0  0  0  0  0  0  0  0  0
    6.2580  -22.9278   -9.3393 S   0  0  0  0  0  0  0  0  0  0  0  0
    8.2711  -23.9171  -13.1030 H   0  0  0  0  0  0  0  0  0  0  0  0
    8.4199  -25.8665  -14.6272 H   0  0  0  0  0  0  0  0  0  0  0  0
    9.8160  -23.7126  -11.1918 H   0  0  0  0  0  0  0  0  0  0  0  0
   10.1014  -27.6287  -14.2296 H   0  0  0  0  0  0  0  0  0  0  0  0
    8.5366  -26.7974   -7.4424 H   0  0  0  0  0  0  0  0  0  0  0  0
    6.7422  -27.3561  -11.3189 H   0  0  0  0  0  0  0  0  0  0  0  0
    7.7602  -24.4597   -7.4190 H   0  0  0  0  0  0  0  0  0  0  0  0
    5.9650  -25.0189  -11.2969 H   0  0  0  0  0  0  0  0  0  0  0  0
   11.6993  -24.6286   -9.8202 H   0  0  0  0  0  0  0  0  0  0  0  0
   13.5684  -26.1304   -9.6363 H   0  0  0  0  0  0  0  0  0  0  0  0
   12.4033  -28.0693  -13.1381 H   0  0  0  0  0  0  0  0  0  0  0  0
   15.1740  -28.2918   -9.3972 H   0  0  0  0  0  0  0  0  0  0  0  0
   15.2705  -26.6819  -10.1448 H   0  0  0  0  0  0  0  0  0  0  0  0
   16.2802  -28.0038  -10.7586 H   0  0  0  0  0  0  0  0  0  0  0  0
    6.4336  -29.5086  -10.4073 H   0  0  0  0  0  0  0  0  0  0  0  0
    7.4016  -30.6934   -9.5108 H   0  0  0  0  0  0  0  0  0  0  0  0
    6.3360  -29.5923   -8.6396 H   0  0  0  0  0  0  0  0  0  0  0  0
    7.3077  -20.9565  -10.1081 H   0  0  0  0  0  0  0  0  0  0  0  0
    8.4855  -22.1558   -9.4835 H   0  0  0  0  0  0  0  0  0  0  0  0
    7.7397  -22.3882  -11.0977 H   0  0  0  0  0  0  0  0  0  0  0  0
   11.9447  -29.7805  -11.4048 H   0  0  0  0  0  0  0  0  0  0  0  0
   10.4983  -29.3650  -12.3434 H   0  0  0  0  0  0  0  0  0  0  0  0
    8.7136  -28.8740   -8.4677 H   0  0  0  0  0  0  0  0  0  0  0  0
    8.7724  -29.2459  -11.3507 H   0  0  0  0  0  0  0  0  0  0  0  0
  1  2  1  0  0  0  0
  1  3  2  0  0  0  0
  2  4  2  0  0  0  0
  3  9  1  0  0  0  0
  4 10  1  0  0  0  0
  5  7  2  0  0  0  0
  5 11  1  0  0  0  0
  6  8  1  0  0  0  0
  6 11  2  0  0  0  0
  7 12  1  0  0  0  0
  8 12  2  0  0  0  0
  9 10  2  0  0  0  0
  9 13  1  0  0  0  0
 10 17  1  0  0  0  0
 11 22  1  0  0  0  0
 12 29  1  0  0  0  0
 13 14  2  0  0  0  0
 14 23  1  0  0  0  0
 15 18  1  0  0  0  0
 15 23  1  0  0  0  0
 15 25  2  0  0  0  0
 16 21  1  0  0  0  0
 16 24  1  0  0  0  0
 16 26  2  0  0  0  0
 17 21  1  0  0  0  0
 17 23  1  0  0  0  0
 19 22  1  0  0  0  0
 20 29  1  0  0  0  0
 22 24  1  0  0  0  0
 27 29  2  0  0  0  0
 28 29  2  0  0  0  0
  1 30  1  0  0  0  0
  2 31  1  0  0  0  0
  3 32  1  0  0  0  0
  4 33  1  0  0  0  0
  5 34  1  0  0  0  0
  6 35  1  0  0  0  0
  7 36  1  0  0  0  0
  8 37  1  0  0  0  0
 13 38  1  0  0  0  0
 14 39  1  0  0  0  0
 17 40  1  0  0  0  0
 18 41  1  0  0  0  0
 18 42  1  0  0  0  0
 18 43  1  0  0  0  0
 19 44  1  0  0  0  0
 19 45  1  0  0  0  0
 19 46  1  0  0  0  0
 20 47  1  0  0  0  0
 20 48  1  0  0  0  0
 20 49  1  0  0  0  0
 21 50  1  0  0  0  0
 21 51  1  0  0  0  0
 22 52  1  0  0  0  0
 24 53  1  0  0  0  0
M  END
> <Hybrid2>
0.040756165981292725

> <Hybrid2>
0.041166

$$$$
C12817098
  -OEChem-02152218483D

 42 45  0     1  0  0  0  0  0999 V2000
    5.3631  -29.1728   -9.5669 C   0  0  0  0  0  0  0  0  0  0  0  0
    5.8505  -30.4452   -9.2694 C   0  0  0  0  0  0  0  0  0  0  0  0
    7.9823  -29.4810   -8.7092 C   0  0  0  0  0  0  0  0  0  0  0  0
    7.5080  -28.1862   -9.0025 C   0  0  0  0  0  0  0  0  0  0  0  0
    6.1814  -28.0359   -9.4431 C   0  0  0  0  0  0  0  0  0  0  0  0
    7.1619  -30.5999   -8.8405 C   0  0  0  0  0  0  0  0  0  0  0  0
   13.6936  -26.9992  -12.0507 C   0  0  0  0  0  0  0  0  0  0  0  0
   12.8352  -26.8774  -10.8936 C   0  0  0  0  0  0  0  0  0  0  0  0
   13.1603  -26.9016  -13.2751 C   0  0  0  0  0  0  0  0  0  0  0  0
   11.5105  -26.6846  -11.0096 C   0  0  0  0  0  0  0  0  0  0  0  0
   10.9244  -26.5914  -12.4070 C   0  0  0  0  0  0  0  0  0  0  0  0
   10.7282  -26.5794   -9.7749 C   0  0  0  0  0  0  0  0  0  0  0  0
    7.8036  -25.6639   -8.7086 C   0  0  0  0  0  0  0  0  0  0  0  0
   11.3079  -26.6217  -14.8819 C   0  0  0  0  0  0  0  0  0  0  0  0
    6.8488  -25.3520   -9.8480 C   0  0  0  0  0  0  0  0  0  0  0  0
   10.0803  -25.7389  -14.9629 C   0  0  0  0  0  0  0  0  0  0  0  0
    8.4744  -27.0333   -8.8481 C   0  0  2  0  0  0  0  0  0  0  0  0
    9.6283  -26.4261  -12.4572 N   0  0  0  0  0  0  0  0  0  0  0  0
   11.8068  -26.6832  -13.5062 N   0  0  0  0  0  0  0  0  0  0  0  0
    9.4366  -27.0345   -9.9293 N   0  0  0  0  0  0  0  0  0  0  0  0
   11.2323  -26.1281   -8.7524 O   0  0  0  0  0  0  0  0  0  0  0  0
    8.4357  -27.6540  -14.3032 O   0  0  0  0  0  0  0  0  0  0  0  0
    7.8209  -25.2756  -13.7683 O   0  0  0  0  0  0  0  0  0  0  0  0
    5.4176  -26.4659   -9.8349 S   0  0  0  0  0  0  0  0  0  0  0  0
    8.8190  -26.3254  -13.8614 S   0  0  0  0  0  0  0  0  0  0  0  0
    7.7708  -32.1662   -8.4727 Cl  0  0  0  0  0  0  0  0  0  0  0  0
    4.3302  -29.0820   -9.8985 H   0  0  0  0  0  0  0  0  0  0  0  0
    5.1929  -31.3037   -9.3772 H   0  0  0  0  0  0  0  0  0  0  0  0
    9.0107  -29.6076   -8.3735 H   0  0  0  0  0  0  0  0  0  0  0  0
   14.7529  -27.1704  -11.9022 H   0  0  0  0  0  0  0  0  0  0  0  0
   13.3197  -26.9536   -9.9247 H   0  0  0  0  0  0  0  0  0  0  0  0
   13.7689  -26.9906  -14.1677 H   0  0  0  0  0  0  0  0  0  0  0  0
    8.5740  -24.8833   -8.6602 H   0  0  0  0  0  0  0  0  0  0  0  0
    7.2684  -25.6117   -7.7503 H   0  0  0  0  0  0  0  0  0  0  0  0
   11.0742  -27.6388  -15.2184 H   0  0  0  0  0  0  0  0  0  0  0  0
   12.0738  -26.2210  -15.5568 H   0  0  0  0  0  0  0  0  0  0  0  0
    6.4766  -24.3270   -9.7516 H   0  0  0  0  0  0  0  0  0  0  0  0
    7.3503  -25.4263  -10.8187 H   0  0  0  0  0  0  0  0  0  0  0  0
   10.3120  -24.7034  -14.6920 H   0  0  0  0  0  0  0  0  0  0  0  0
    9.6603  -25.7449  -15.9733 H   0  0  0  0  0  0  0  0  0  0  0  0
    9.0615  -27.1971   -7.9291 H   0  0  0  0  0  0  0  0  0  0  0  0
    9.1489  -27.3841  -10.8364 H   0  0  0  0  0  0  0  0  0  0  0  0
  1  2  1  0  0  0  0
  1  5  2  0  0  0  0
  2  6  2  0  0  0  0
  3  4  2  0  0  0  0
  3  6  1  0  0  0  0
  4  5  1  0  0  0  0
  4 17  1  0  0  0  0
  5 24  1  0  0  0  0
  6 26  1  0  0  0  0
  7  8  1  0  0  0  0
  7  9  2  0  0  0  0
  8 10  2  0  0  0  0
  9 19  1  0  0  0  0
 10 11  1  0  0  0  0
 10 12  1  0  0  0  0
 11 18  2  0  0  0  0
 11 19  1  0  0  0  0
 12 20  1  0  0  0  0
 12 21  2  0  0  0  0
 13 15  1  0  0  0  0
 13 17  1  0  0  0  0
 14 16  1  0  0  0  0
 14 19  1  0  0  0  0
 15 24  1  0  0  0  0
 16 25  1  0  0  0  0
 17 20  1  0  0  0  0
 18 25  1  0  0  0  0
 22 25  2  0  0  0  0
 23 25  2  0  0  0  0
  1 27  1  0  0  0  0
  2 28  1  0  0  0  0
  3 29  1  0  0  0  0
  7 30  1  0  0  0  0
  8 31  1  0  0  0  0
  9 32  1  0  0  0  0
 13 33  1  0  0  0  0
 13 34  1  0  0  0  0
 14 35  1  0  0  0  0
 14 36  1  0  0  0  0
 15 37  1  0  0  0  0
 15 38  1  0  0  0  0
 16 39  1  0  0  0  0
 16 40  1  0  0  0  0
 17 41  1  0  0  0  0
 20 42  1  0  0  0  0
M  END
> <Hybrid2>
-5.577821731567383

> <Hybrid2>
-5.577822

$$$$
C12817098
  -OEChem-02152218483D

 42 45  0     1  0  0  0  0  0999 V2000
    5.2450  -28.7823   -9.9758 C   0  0  0  0  0  0  0  0  0  0  0  0
    5.5421  -30.0749   -9.5449 C   0  0  0  0  0  0  0  0  0  0  0  0
    7.6059  -29.2711   -8.6052 C   0  0  0  0  0  0  0  0  0  0  0  0
    7.3228  -27.9570   -9.0302 C   0  0  0  0  0  0  0  0  0  0  0  0
    6.1277  -27.7155   -9.7303 C   0  0  0  0  0  0  0  0  0  0  0  0
    6.7241  -30.3201   -8.8591 C   0  0  0  0  0  0  0  0  0  0  0  0
   14.0677  -27.4686  -10.8278 C   0  0  0  0  0  0  0  0  0  0  0  0
   13.0160  -27.2134   -9.8689 C   0  0  0  0  0  0  0  0  0  0  0  0
   13.7946  -27.3886  -12.1363 C   0  0  0  0  0  0  0  0  0  0  0  0
   11.7636  -26.9129  -10.2520 C   0  0  0  0  0  0  0  0  0  0  0  0
   11.4722  -26.8417  -11.7403 C   0  0  0  0  0  0  0  0  0  0  0  0
   10.7695  -26.6768   -9.2015 C   0  0  0  0  0  0  0  0  0  0  0  0
    7.7938  -25.4579   -8.7684 C   0  0  0  0  0  0  0  0  0  0  0  0
   12.3254  -27.0330  -14.0873 C   0  0  0  0  0  0  0  0  0  0  0  0
    7.1130  -25.1239  -10.0846 C   0  0  0  0  0  0  0  0  0  0  0  0
   11.2266  -26.0527  -14.4401 C   0  0  0  0  0  0  0  0  0  0  0  0
    8.3457  -26.8856   -8.7258 C   0  0  2  0  0  0  0  0  0  0  0  0
   10.2324  -26.5677  -12.0524 N   0  0  0  0  0  0  0  0  0  0  0  0
   12.5389  -27.0662  -12.6387 N   0  0  0  0  0  0  0  0  0  0  0  0
    9.4954  -27.0259   -9.5939 N   0  0  0  0  0  0  0  0  0  0  0  0
   11.1056  -26.2186   -8.1150 O   0  0  0  0  0  0  0  0  0  0  0  0
    9.3108  -27.7817  -14.0560 O   0  0  0  0  0  0  0  0  0  0  0  0
    8.8323  -25.3346  -13.7341 O   0  0  0  0  0  0  0  0  0  0  0  0
    5.6075  -26.1076  -10.3185 S   0  0  0  0  0  0  0  0  0  0  0  0
    9.7251  -26.4702  -13.5919 S   0  0  0  0  0  0  0  0  0  0  0  0
    7.0982  -31.9121   -8.3253 Cl  0  0  0  0  0  0  0  0  0  0  0  0
    4.3098  -28.6198  -10.5087 H   0  0  0  0  0  0  0  0  0  0  0  0
    4.8395  -30.8778   -9.7521 H   0  0  0  0  0  0  0  0  0  0  0  0
    8.5324  -29.4686   -8.0680 H   0  0  0  0  0  0  0  0  0  0  0  0
   15.0567  -27.7228  -10.4663 H   0  0  0  0  0  0  0  0  0  0  0  0
   13.2931  -27.2810   -8.8211 H   0  0  0  0  0  0  0  0  0  0  0  0
   14.5540  -27.5759  -12.8868 H   0  0  0  0  0  0  0  0  0  0  0  0
    8.6106  -24.7454   -8.5943 H   0  0  0  0  0  0  0  0  0  0  0  0
    7.0897  -25.3102   -7.9378 H   0  0  0  0  0  0  0  0  0  0  0  0
   12.0662  -28.0421  -14.4291 H   0  0  0  0  0  0  0  0  0  0  0  0
   13.2426  -26.7354  -14.6098 H   0  0  0  0  0  0  0  0  0  0  0  0
    6.8283  -24.0669  -10.0985 H   0  0  0  0  0  0  0  0  0  0  0  0
    7.7844  -25.2914  -10.9333 H   0  0  0  0  0  0  0  0  0  0  0  0
   11.4984  -25.0284  -14.1636 H   0  0  0  0  0  0  0  0  0  0  0  0
   11.0126  -26.0745  -15.5130 H   0  0  0  0  0  0  0  0  0  0  0  0
    8.7245  -27.0518   -7.7037 H   0  0  0  0  0  0  0  0  0  0  0  0
    9.3579  -27.3956  -10.5278 H   0  0  0  0  0  0  0  0  0  0  0  0
  1  2  1  0  0  0  0
  1  5  2  0  0  0  0
  2  6  2  0  0  0  0
  3  4  2  0  0  0  0
  3  6  1  0  0  0  0
  4  5  1  0  0  0  0
  4 17  1  0  0  0  0
  5 24  1  0  0  0  0
  6 26  1  0  0  0  0
  7  8  1  0  0  0  0
  7  9  2  0  0  0  0
  8 10  2  0  0  0  0
  9 19  1  0  0  0  0
 10 11  1  0  0  0  0
 10 12  1  0  0  0  0
 11 18  2  0  0  0  0
 11 19  1  0  0  0  0
 12 20  1  0  0  0  0
 12 21  2  0  0  0  0
 13 15  1  0  0  0  0
 13 17  1  0  0  0  0
 14 16  1  0  0  0  0
 14 19  1  0  0  0  0
 15 24  1  0  0  0  0
 16 25  1  0  0  0  0
 17 20  1  0  0  0  0
 18 25  1  0  0  0  0
 22 25  2  0  0  0  0
 23 25  2  0  0  0  0
  1 27  1  0  0  0  0
  2 28  1  0  0  0  0
  3 29  1  0  0  0  0
  7 30  1  0  0  0  0
  8 31  1  0  0  0  0
  9 32  1  0  0  0  0
 13 33  1  0  0  0  0
 13 34  1  0  0  0  0
 14 35  1  0  0  0  0
 14 36  1  0  0  0  0
 15 37  1  0  0  0  0
 15 38  1  0  0  0  0
 16 39  1  0  0  0  0
 16 40  1  0  0  0  0
 17 41  1  0  0  0  0
 20 42  1  0  0  0  0
M  END
> <Hybrid2>
-5.577821731567383

> <Hybrid2>
-4.920241

$$$$
C12859207
  -OEChem-02152218483D

 48 51  0     1  0  0  0  0  0999 V2000
   15.0520  -28.3143  -10.5703 C   0  0  0  0  0  0  0  0  0  0  0  0
   14.5443  -28.1373   -9.2878 C   0  0  0  0  0  0  0  0  0  0  0  0
   14.3207  -27.8778  -11.6727 C   0  0  0  0  0  0  0  0  0  0  0  0
    6.6554  -29.4858  -10.8158 C   0  0  0  0  0  0  0  0  0  0  0  0
    7.1268  -29.7519   -8.4612 C   0  0  0  0  0  0  0  0  0  0  0  0
   13.2991  -27.5322   -9.1015 C   0  0  0  0  0  0  0  0  0  0  0  0
    5.2945  -29.3752  -10.5308 C   0  0  0  0  0  0  0  0  0  0  0  0
    5.7659  -29.6413   -8.1762 C   0  0  0  0  0  0  0  0  0  0  0  0
   13.0695  -27.2697  -11.4935 C   0  0  0  0  0  0  0  0  0  0  0  0
    7.5716  -29.6742   -9.7810 C   0  0  0  0  0  0  0  0  0  0  0  0
   12.5436  -27.1029  -10.2004 C   0  0  0  0  0  0  0  0  0  0  0  0
    4.8497  -29.4529   -9.2111 C   0  0  0  0  0  0  0  0  0  0  0  0
   12.3666  -26.7253  -12.6899 C   0  0  0  0  0  0  0  0  0  0  0  0
   10.6674  -26.0330   -8.8863 C   0  0  0  0  0  0  0  0  0  0  0  0
    9.6941  -27.7461  -11.3457 C   0  0  0  0  0  0  0  0  0  0  0  0
    9.3057  -25.5053   -9.2781 C   0  0  0  0  0  0  0  0  0  0  0  0
    9.4094  -25.3287  -10.7920 C   0  0  0  0  0  0  0  0  0  0  0  0
   10.3993  -26.4120  -11.2098 C   0  0  1  0  0  0  0  0  0  0  0  0
    9.7874  -30.6712   -9.0821 C   0  0  0  0  0  0  0  0  0  0  0  0
   10.4499  -25.4042  -13.5247 C   0  0  0  0  0  0  0  0  0  0  0  0
    9.0486  -29.7926  -10.0895 C   0  0  2  0  0  0  0  0  0  0  0  0
   11.2682  -26.5167  -10.0573 N   0  0  0  0  0  0  0  0  0  0  0  0
   11.0922  -26.1906  -12.4748 N   0  0  0  0  0  0  0  0  0  0  0  0
    9.6710  -28.4914  -10.1823 N   0  0  0  0  0  0  0  0  0  0  0  0
   12.9399  -26.7420  -13.7771 O   0  0  0  0  0  0  0  0  0  0  0  0
   11.0890  -26.0101   -7.7397 O   0  0  0  0  0  0  0  0  0  0  0  0
    9.2099  -28.0664  -12.4249 O   0  0  0  0  0  0  0  0  0  0  0  0
    3.1708  -29.3163   -8.8598 Cl  0  0  0  0  0  0  0  0  0  0  0  0
   16.0205  -28.7847  -10.7123 H   0  0  0  0  0  0  0  0  0  0  0  0
   15.1146  -28.4769   -8.4279 H   0  0  0  0  0  0  0  0  0  0  0  0
   14.7489  -28.0112  -12.6628 H   0  0  0  0  0  0  0  0  0  0  0  0
    6.9941  -29.4244  -11.8467 H   0  0  0  0  0  0  0  0  0  0  0  0
    7.8342  -29.8983   -7.6492 H   0  0  0  0  0  0  0  0  0  0  0  0
   12.9369  -27.4405   -8.0835 H   0  0  0  0  0  0  0  0  0  0  0  0
    4.5923  -29.2283  -11.3475 H   0  0  0  0  0  0  0  0  0  0  0  0
    5.4339  -29.7038   -7.1431 H   0  0  0  0  0  0  0  0  0  0  0  0
    8.5475  -26.2455   -9.0043 H   0  0  0  0  0  0  0  0  0  0  0  0
    9.0963  -24.5571   -8.7767 H   0  0  0  0  0  0  0  0  0  0  0  0
    8.4264  -25.4143  -11.2666 H   0  0  0  0  0  0  0  0  0  0  0  0
    9.8127  -24.3294  -10.9992 H   0  0  0  0  0  0  0  0  0  0  0  0
    9.6985  -30.2682   -8.0673 H   0  0  0  0  0  0  0  0  0  0  0  0
    9.3738  -31.6860   -9.0817 H   0  0  0  0  0  0  0  0  0  0  0  0
   10.8538  -30.7585   -9.3187 H   0  0  0  0  0  0  0  0  0  0  0  0
    9.8613  -26.0694  -14.1736 H   0  0  0  0  0  0  0  0  0  0  0  0
    9.7855  -24.6560  -13.0677 H   0  0  0  0  0  0  0  0  0  0  0  0
   11.2191  -24.8945  -14.1235 H   0  0  0  0  0  0  0  0  0  0  0  0
    9.1736  -30.2452  -11.0809 H   0  0  0  0  0  0  0  0  0  0  0  0
   10.1126  -28.1065   -9.3527 H   0  0  0  0  0  0  0  0  0  0  0  0
  1  2  1  0  0  0  0
  1  3  2  0  0  0  0
  2  6  2  0  0  0  0
  3  9  1  0  0  0  0
  4  7  2  0  0  0  0
  4 10  1  0  0  0  0
  5  8  1  0  0  0  0
  5 10  2  0  0  0  0
  6 11  1  0  0  0  0
  7 12  1  0  0  0  0
  8 12  2  0  0  0  0
  9 11  2  0  0  0  0
  9 13  1  0  0  0  0
 10 21  1  0  0  0  0
 11 22  1  0  0  0  0
 12 28  1  0  0  0  0
 13 23  1  0  0  0  0
 13 25  2  0  0  0  0
 14 16  1  0  0  0  0
 14 22  1  0  0  0  0
 14 26  2  0  0  0  0
 15 18  1  0  0  0  0
 15 24  1  0  0  0  0
 15 27  2  0  0  0  0
 16 17  1  0  0  0  0
 17 18  1  0  0  0  0
 18 22  1  0  0  0  0
 18 23  1  0  0  0  0
 19 21  1  0  0  0  0
 20 23  1  0  0  0  0
 21 24  1  0  0  0  0
  1 29  1  0  0  0  0
  2 30  1  0  0  0  0
  3 31  1  0  0  0  0
  4 32  1  0  0  0  0
  5 33  1  0  0  0  0
  6 34  1  0  0  0  0
  7 35  1  0  0  0  0
  8 36  1  0  0  0  0
 16 37  1  0  0  0  0
 16 38  1  0  0  0  0
 17 39  1  0  0  0  0
 17 40  1  0  0  0  0
 19 41  1  0  0  0  0
 19 42  1  0  0  0  0
 19 43  1  0  0  0  0
 20 44  1  0  0  0  0
 20 45  1  0  0  0  0
 20 46  1  0  0  0  0
 21 47  1  0  0  0  0
 24 48  1  0  0  0  0
M  END
> <Hybrid2>
-1.5817170143127441

> <Hybrid2>
-1.581717

$$$$
C12859207
  -OEChem-02152218483D

 48 51  0     1  0  0  0  0  0999 V2000
   14.7234  -27.6727  -10.4453 C   0  0  0  0  0  0  0  0  0  0  0  0
   14.1360  -27.0337   -9.3587 C   0  0  0  0  0  0  0  0  0  0  0  0
   14.1367  -27.5800  -11.7054 C   0  0  0  0  0  0  0  0  0  0  0  0
    6.7976  -29.3863   -9.7312 C   0  0  0  0  0  0  0  0  0  0  0  0
    7.8745  -27.4479   -8.7719 C   0  0  0  0  0  0  0  0  0  0  0  0
   12.9543  -26.3074   -9.5245 C   0  0  0  0  0  0  0  0  0  0  0  0
    5.6367  -29.0960   -9.0146 C   0  0  0  0  0  0  0  0  0  0  0  0
    6.7135  -27.1576   -8.0553 C   0  0  0  0  0  0  0  0  0  0  0  0
   12.9500  -26.8529  -11.8794 C   0  0  0  0  0  0  0  0  0  0  0  0
    7.9166  -28.5623   -9.6098 C   0  0  0  0  0  0  0  0  0  0  0  0
   12.3426  -26.2185  -10.7817 C   0  0  0  0  0  0  0  0  0  0  0  0
    5.5946  -27.9817   -8.1767 C   0  0  0  0  0  0  0  0  0  0  0  0
   12.4110  -26.6930  -13.2599 C   0  0  0  0  0  0  0  0  0  0  0  0
   10.4956  -24.6263  -10.1145 C   0  0  0  0  0  0  0  0  0  0  0  0
    9.5419  -26.9902  -11.9673 C   0  0  0  0  0  0  0  0  0  0  0  0
    9.2369  -24.1592  -10.8099 C   0  0  0  0  0  0  0  0  0  0  0  0
    9.4820  -24.5137  -12.2755 C   0  0  0  0  0  0  0  0  0  0  0  0
   10.3768  -25.7472  -12.1986 C   0  0  1  0  0  0  0  0  0  0  0  0
   10.1289  -29.7860   -9.6164 C   0  0  0  0  0  0  0  0  0  0  0  0
   10.7262  -25.5889  -14.6945 C   0  0  0  0  0  0  0  0  0  0  0  0
    9.1759  -28.8759  -10.3885 C   0  0  2  0  0  0  0  0  0  0  0  0
   11.1323  -25.5222  -10.9850 N   0  0  0  0  0  0  0  0  0  0  0  0
   11.1903  -26.0207  -13.3787 N   0  0  0  0  0  0  0  0  0  0  0  0
    9.8511  -27.6671  -10.8030 N   0  0  0  0  0  0  0  0  0  0  0  0
   13.0654  -27.1205  -14.2086 O   0  0  0  0  0  0  0  0  0  0  0  0
   10.8227  -24.2493   -8.9992 O   0  0  0  0  0  0  0  0  0  0  0  0
    8.6848  -27.3031  -12.7853 O   0  0  0  0  0  0  0  0  0  0  0  0
    4.1623  -27.6238   -7.2929 Cl  0  0  0  0  0  0  0  0  0  0  0  0
   15.6424  -28.2364  -10.3138 H   0  0  0  0  0  0  0  0  0  0  0  0
   14.5936  -27.1052   -8.3761 H   0  0  0  0  0  0  0  0  0  0  0  0
   14.6266  -28.0729  -12.5412 H   0  0  0  0  0  0  0  0  0  0  0  0
    6.8226  -30.2565  -10.3819 H   0  0  0  0  0  0  0  0  0  0  0  0
    8.7419  -26.8008   -8.6720 H   0  0  0  0  0  0  0  0  0  0  0  0
   12.5230  -25.8492   -8.6413 H   0  0  0  0  0  0  0  0  0  0  0  0
    4.7725  -29.7469   -9.1195 H   0  0  0  0  0  0  0  0  0  0  0  0
    6.6953  -26.2860   -7.4061 H   0  0  0  0  0  0  0  0  0  0  0  0
    8.3818  -24.7024  -10.3958 H   0  0  0  0  0  0  0  0  0  0  0  0
    9.0935  -23.0841  -10.6754 H   0  0  0  0  0  0  0  0  0  0  0  0
    8.5374  -24.6789  -12.8039 H   0  0  0  0  0  0  0  0  0  0  0  0
   10.0088  -23.6775  -12.7526 H   0  0  0  0  0  0  0  0  0  0  0  0
   10.4370  -29.3243   -8.6719 H   0  0  0  0  0  0  0  0  0  0  0  0
    9.6444  -30.7413   -9.3849 H   0  0  0  0  0  0  0  0  0  0  0  0
   11.0332  -30.0150  -10.1914 H   0  0  0  0  0  0  0  0  0  0  0  0
   10.1223  -26.3871  -15.1510 H   0  0  0  0  0  0  0  0  0  0  0  0
   10.1136  -24.6816  -14.5876 H   0  0  0  0  0  0  0  0  0  0  0  0
   11.5930  -25.3726  -15.3362 H   0  0  0  0  0  0  0  0  0  0  0  0
    8.9048  -29.3901  -11.3188 H   0  0  0  0  0  0  0  0  0  0  0  0
   10.5882  -27.2974  -10.2101 H   0  0  0  0  0  0  0  0  0  0  0  0
  1  2  1  0  0  0  0
  1  3  2  0  0  0  0
  2  6  2  0  0  0  0
  3  9  1  0  0  0  0
  4  7  2  0  0  0  0
  4 10  1  0  0  0  0
  5  8  1  0  0  0  0
  5 10  2  0  0  0  0
  6 11  1  0  0  0  0
  7 12  1  0  0  0  0
  8 12  2  0  0  0  0
  9 11  2  0  0  0  0
  9 13  1  0  0  0  0
 10 21  1  0  0  0  0
 11 22  1  0  0  0  0
 12 28  1  0  0  0  0
 13 23  1  0  0  0  0
 13 25  2  0  0  0  0
 14 16  1  0  0  0  0
 14 22  1  0  0  0  0
 14 26  2  0  0  0  0
 15 18  1  0  0  0  0
 15 24  1  0  0  0  0
 15 27  2  0  0  0  0
 16 17  1  0  0  0  0
 17 18  1  0  0  0  0
 18 22  1  0  0  0  0
 18 23  1  0  0  0  0
 19 21  1  0  0  0  0
 20 23  1  0  0  0  0
 21 24  1  0  0  0  0
  1 29  1  0  0  0  0
  2 30  1  0  0  0  0
  3 31  1  0  0  0  0
  4 32  1  0  0  0  0
  5 33  1  0  0  0  0
  6 34  1  0  0  0  0
  7 35  1  0  0  0  0
  8 36  1  0  0  0  0
 16 37  1  0  0  0  0
 16 38  1  0  0  0  0
 17 39  1  0  0  0  0
 17 40  1  0  0  0  0
 19 41  1  0  0  0  0
 19 42  1  0  0  0  0
 19 43  1  0  0  0  0
 20 44  1  0  0  0  0
 20 45  1  0  0  0  0
 20 46  1  0  0  0  0
 21 47  1  0  0  0  0
 24 48  1  0  0  0  0
M  END
> <Hybrid2>
-1.5817170143127441

> <Hybrid2>
-1.098127

$$$$
C16058595
  -OEChem-02152218483D

 52 55  0     1  0  0  0  0  0999 V2000
    8.1138  -25.1820  -14.2791 C   0  0  0  0  0  0  0  0  0  0  0  0
    8.7105  -24.0275  -13.7769 C   0  0  0  0  0  0  0  0  0  0  0  0
    8.6365  -26.4351  -13.9590 C   0  0  0  0  0  0  0  0  0  0  0  0
    9.8272  -24.1234  -12.9467 C   0  0  0  0  0  0  0  0  0  0  0  0
    5.0775  -26.2661   -9.9357 C   0  0  0  0  0  0  0  0  0  0  0  0
    6.3212  -25.6786  -10.1886 C   0  0  0  0  0  0  0  0  0  0  0  0
    7.4676  -27.5548   -9.1623 C   0  0  0  0  0  0  0  0  0  0  0  0
    9.7611  -26.5361  -13.1323 C   0  0  0  0  0  0  0  0  0  0  0  0
   10.3581  -25.3779  -12.6141 C   0  0  0  0  0  0  0  0  0  0  0  0
    6.2304  -28.1305   -8.9156 C   0  0  0  0  0  0  0  0  0  0  0  0
    5.0458  -27.4967   -9.2960 C   0  0  0  0  0  0  0  0  0  0  0  0
    7.5081  -26.3177   -9.8047 C   0  0  0  0  0  0  0  0  0  0  0  0
   10.3496  -27.8343  -12.8176 C   0  0  0  0  0  0  0  0  0  0  0  0
   11.5277  -27.9141  -12.1863 C   0  0  0  0  0  0  0  0  0  0  0  0
    2.6032  -27.9710   -9.1528 C   0  0  0  0  0  0  0  0  0  0  0  0
   13.5512  -26.8794  -11.2360 C   0  0  0  0  0  0  0  0  0  0  0  0
   10.0228  -26.1887   -9.7643 C   0  0  0  0  0  0  0  0  0  0  0  0
    5.9661  -29.4391   -8.2459 C   0  0  0  0  0  0  0  0  0  0  0  0
    4.4356  -29.5131   -8.2726 C   0  0  0  0  0  0  0  0  0  0  0  0
   11.5389  -25.4943  -11.6681 C   0  0  1  0  0  0  0  0  0  0  0  0
    1.6160  -29.0020   -8.6584 C   0  0  0  0  0  0  0  0  0  0  0  0
   14.2242  -28.2326  -11.2373 C   0  0  0  0  0  0  0  0  0  0  0  0
   11.0764  -25.2063  -10.2305 C   0  0  0  0  0  0  0  0  0  0  0  0
    3.9365  -28.2878   -8.9314 N   0  0  0  0  0  0  0  0  0  0  0  0
   12.2332  -26.8113  -11.7221 N   0  0  0  0  0  0  0  0  0  0  0  0
    8.7548  -25.7033  -10.0711 N   0  0  0  0  0  0  0  0  0  0  0  0
    2.1850  -26.9511   -9.7013 O   0  0  0  0  0  0  0  0  0  0  0  0
   14.1807  -25.9005  -10.8227 O   0  0  0  0  0  0  0  0  0  0  0  0
   10.3020  -27.2434   -9.2038 O   0  0  0  0  0  0  0  0  0  0  0  0
    7.2428  -25.1063  -14.9236 H   0  0  0  0  0  0  0  0  0  0  0  0
    8.3043  -23.0524  -14.0294 H   0  0  0  0  0  0  0  0  0  0  0  0
    8.1647  -27.3250  -14.3685 H   0  0  0  0  0  0  0  0  0  0  0  0
   10.2769  -23.2150  -12.5540 H   0  0  0  0  0  0  0  0  0  0  0  0
    4.1808  -25.7440  -10.2458 H   0  0  0  0  0  0  0  0  0  0  0  0
    6.3564  -24.7134  -10.6898 H   0  0  0  0  0  0  0  0  0  0  0  0
    8.3797  -28.0607   -8.8600 H   0  0  0  0  0  0  0  0  0  0  0  0
    9.8490  -28.7321  -13.1641 H   0  0  0  0  0  0  0  0  0  0  0  0
   11.9713  -28.8918  -12.0449 H   0  0  0  0  0  0  0  0  0  0  0  0
    6.4122  -30.2640   -8.8097 H   0  0  0  0  0  0  0  0  0  0  0  0
    6.3440  -29.4356   -7.2190 H   0  0  0  0  0  0  0  0  0  0  0  0
    4.0874  -30.3879   -8.8328 H   0  0  0  0  0  0  0  0  0  0  0  0
    4.0202  -29.5698   -7.2603 H   0  0  0  0  0  0  0  0  0  0  0  0
   12.2794  -24.7358  -11.9552 H   0  0  0  0  0  0  0  0  0  0  0  0
    1.3473  -28.7696   -7.6342 H   0  0  0  0  0  0  0  0  0  0  0  0
    2.0751  -29.9832   -8.7101 H   0  0  0  0  0  0  0  0  0  0  0  0
    0.7349  -28.9776   -9.2901 H   0  0  0  0  0  0  0  0  0  0  0  0
   14.7381  -28.3687  -12.1818 H   0  0  0  0  0  0  0  0  0  0  0  0
   13.4701  -29.0009  -11.1083 H   0  0  0  0  0  0  0  0  0  0  0  0
   14.9322  -28.2739  -10.4173 H   0  0  0  0  0  0  0  0  0  0  0  0
   10.6695  -24.1960  -10.1938 H   0  0  0  0  0  0  0  0  0  0  0  0
   11.9415  -25.2640   -9.5703 H   0  0  0  0  0  0  0  0  0  0  0  0
    8.7038  -24.8025  -10.5425 H   0  0  0  0  0  0  0  0  0  0  0  0
  1  2  1  0  0  0  0
  1  3  2  0  0  0  0
  2  4  2  0  0  0  0
  3  8  1  0  0  0  0
  4  9  1  0  0  0  0
  5  6  1  0  0  0  0
  5 11  2  0  0  0  0
  6 12  2  0  0  0  0
  7 10  2  0  0  0  0
  7 12  1  0  0  0  0
  8  9  2  0  0  0  0
  8 13  1  0  0  0  0
  9 20  1  0  0  0  0
 10 11  1  0  0  0  0
 10 18  1  0  0  0  0
 11 24  1  0  0  0  0
 12 26  1  0  0  0  0
 13 14  2  0  0  0  0
 14 25  1  0  0  0  0
 15 21  1  0  0  0  0
 15 24  1  0  0  0  0
 15 27  2  0  0  0  0
 16 22  1  0  0  0  0
 16 25  1  0  0  0  0
 16 28  2  0  0  0  0
 17 23  1  0  0  0  0
 17 26  1  0  0  0  0
 17 29  2  0  0  0  0
 18 19  1  0  0  0  0
 19 24  1  0  0  0  0
 20 23  1  0  0  0  0
 20 25  1  0  0  0  0
  1 30  1  0  0  0  0
  2 31  1  0  0  0  0
  3 32  1  0  0  0  0
  4 33  1  0  0  0  0
  5 34  1  0  0  0  0
  6 35  1  0  0  0  0
  7 36  1  0  0  0  0
 13 37  1  0  0  0  0
 14 38  1  0  0  0  0
 18 39  1  0  0  0  0
 18 40  1  0  0  0  0
 19 41  1  0  0  0  0
 19 42  1  0  0  0  0
 20 43  1  0  0  0  0
 21 44  1  0  0  0  0
 21 45  1  0  0  0  0
 21 46  1  0  0  0  0
 22 47  1  0  0  0  0
 22 48  1  0  0  0  0
 22 49  1  0  0  0  0
 23 50  1  0  0  0  0
 23 51  1  0  0  0  0
 26 52  1  0  0  0  0
M  END
> <Hybrid2>
-4.324897289276123

> <Hybrid2>
-4.324897

$$$$
C16058595
  -OEChem-02152218483D

 52 55  0     1  0  0  0  0  0999 V2000
    7.0791  -30.9014   -8.3568 C   0  0  0  0  0  0  0  0  0  0  0  0
    6.5182  -30.1734   -7.3097 C   0  0  0  0  0  0  0  0  0  0  0  0
    6.8273  -30.5326   -9.6783 C   0  0  0  0  0  0  0  0  0  0  0  0
    5.7102  -29.0695   -7.5812 C   0  0  0  0  0  0  0  0  0  0  0  0
   11.3513  -27.6800   -9.1510 C   0  0  0  0  0  0  0  0  0  0  0  0
   10.0261  -27.5297   -8.7300 C   0  0  0  0  0  0  0  0  0  0  0  0
    9.4620  -26.3511  -10.7746 C   0  0  0  0  0  0  0  0  0  0  0  0
    6.0112  -29.4301   -9.9559 C   0  0  0  0  0  0  0  0  0  0  0  0
    5.4543  -28.6864   -8.9056 C   0  0  0  0  0  0  0  0  0  0  0  0
   10.7778  -26.5046  -11.1845 C   0  0  0  0  0  0  0  0  0  0  0  0
   11.7156  -27.1608  -10.3848 C   0  0  0  0  0  0  0  0  0  0  0  0
    9.0877  -26.8699   -9.5355 C   0  0  0  0  0  0  0  0  0  0  0  0
    5.7007  -29.0508  -11.3309 C   0  0  0  0  0  0  0  0  0  0  0  0
    4.7747  -28.1188  -11.5888 C   0  0  0  0  0  0  0  0  0  0  0  0
   14.1336  -27.7478  -10.5278 C   0  0  0  0  0  0  0  0  0  0  0  0
    3.0035  -26.5662  -10.8672 C   0  0  0  0  0  0  0  0  0  0  0  0
    6.6962  -26.1103   -9.7497 C   0  0  0  0  0  0  0  0  0  0  0  0
   11.3811  -26.0280  -12.4649 C   0  0  0  0  0  0  0  0  0  0  0  0
   12.8354  -26.4919  -12.3301 C   0  0  0  0  0  0  0  0  0  0  0  0
    4.6213  -27.4551   -9.2097 C   0  0  1  0  0  0  0  0  0  0  0  0
   15.3389  -27.6247  -11.4300 C   0  0  0  0  0  0  0  0  0  0  0  0
    2.5280  -26.4690  -12.2985 C   0  0  0  0  0  0  0  0  0  0  0  0
    5.4420  -26.1911   -8.9055 C   0  0  0  0  0  0  0  0  0  0  0  0
   12.9702  -27.1801  -11.0289 N   0  0  0  0  0  0  0  0  0  0  0  0
    4.1058  -27.3997  -10.6064 N   0  0  0  0  0  0  0  0  0  0  0  0
    7.7525  -26.7299   -9.0879 N   0  0  0  0  0  0  0  0  0  0  0  0
   14.2483  -28.3215   -9.4445 O   0  0  0  0  0  0  0  0  0  0  0  0
    2.4071  -25.9259   -9.9957 O   0  0  0  0  0  0  0  0  0  0  0  0
    6.7212  -25.5670  -10.8491 O   0  0  0  0  0  0  0  0  0  0  0  0
    7.7102  -31.7595   -8.1442 H   0  0  0  0  0  0  0  0  0  0  0  0
    6.7128  -30.4636   -6.2813 H   0  0  0  0  0  0  0  0  0  0  0  0
    7.2643  -31.1185  -10.4832 H   0  0  0  0  0  0  0  0  0  0  0  0
    5.2869  -28.5046   -6.7545 H   0  0  0  0  0  0  0  0  0  0  0  0
   12.0496  -28.1950   -8.5030 H   0  0  0  0  0  0  0  0  0  0  0  0
    9.7306  -27.9335   -7.7637 H   0  0  0  0  0  0  0  0  0  0  0  0
    8.7448  -25.8381  -11.4084 H   0  0  0  0  0  0  0  0  0  0  0  0
    6.1843  -29.5852  -12.1416 H   0  0  0  0  0  0  0  0  0  0  0  0
    4.5128  -27.9245  -12.6214 H   0  0  0  0  0  0  0  0  0  0  0  0
   10.8941  -26.4972  -13.3252 H   0  0  0  0  0  0  0  0  0  0  0  0
   11.3194  -24.9383  -12.5440 H   0  0  0  0  0  0  0  0  0  0  0  0
   13.1097  -27.1861  -13.1321 H   0  0  0  0  0  0  0  0  0  0  0  0
   13.5299  -25.6450  -12.3607 H   0  0  0  0  0  0  0  0  0  0  0  0
    3.7432  -27.4683   -8.5502 H   0  0  0  0  0  0  0  0  0  0  0  0
   15.8626  -26.7051  -11.1946 H   0  0  0  0  0  0  0  0  0  0  0  0
   15.0068  -27.6109  -12.4623 H   0  0  0  0  0  0  0  0  0  0  0  0
   15.9895  -28.4767  -11.2672 H   0  0  0  0  0  0  0  0  0  0  0  0
    1.7829  -27.2363  -12.4741 H   0  0  0  0  0  0  0  0  0  0  0  0
    3.3743  -26.6115  -12.9610 H   0  0  0  0  0  0  0  0  0  0  0  0
    2.0983  -25.4869  -12.4603 H   0  0  0  0  0  0  0  0  0  0  0  0
    5.7166  -26.2024   -7.8509 H   0  0  0  0  0  0  0  0  0  0  0  0
    4.8188  -25.3185   -9.0999 H   0  0  0  0  0  0  0  0  0  0  0  0
    7.5553  -27.1339   -8.1746 H   0  0  0  0  0  0  0  0  0  0  0  0
  1  2  1  0  0  0  0
  1  3  2  0  0  0  0
  2  4  2  0  0  0  0
  3  8  1  0  0  0  0
  4  9  1  0  0  0  0
  5  6  1  0  0  0  0
  5 11  2  0  0  0  0
  6 12  2  0  0  0  0
  7 10  2  0  0  0  0
  7 12  1  0  0  0  0
  8  9  2  0  0  0  0
  8 13  1  0  0  0  0
  9 20  1  0  0  0  0
 10 11  1  0  0  0  0
 10 18  1  0  0  0  0
 11 24  1  0  0  0  0
 12 26  1  0  0  0  0
 13 14  2  0  0  0  0
 14 25  1  0  0  0  0
 15 21  1  0  0  0  0
 15 24  1  0  0  0  0
 15 27  2  0  0  0  0
 16 22  1  0  0  0  0
 16 25  1  0  0  0  0
 16 28  2  0  0  0  0
 17 23  1  0  0  0  0
 17 26  1  0  0  0  0
 17 29  2  0  0  0  0
 18 19  1  0  0  0  0
 19 24  1  0  0  0  0
 20 23  1  0  0  0  0
 20 25  1  0  0  0  0
  1 30  1  0  0  0  0
  2 31  1  0  0  0  0
  3 32  1  0  0  0  0
  4 33  1  0  0  0  0
  5 34  1  0  0  0  0
  6 35  1  0  0  0  0
  7 36  1  0  0  0  0
 13 37  1  0  0  0  0
 14 38  1  0  0  0  0
 18 39  1  0  0  0  0
 18 40  1  0  0  0  0
 19 41  1  0  0  0  0
 19 42  1  0  0  0  0
 20 43  1  0  0  0  0
 21 44  1  0  0  0  0
 21 45  1  0  0  0  0
 21 46  1  0  0  0  0
 22 47  1  0  0  0  0
 22 48  1  0  0  0  0
 22 49  1  0  0  0  0
 23 50  1  0  0  0  0
 23 51  1  0  0  0  0
 26 52  1  0  0  0  0
M  END
> <Hybrid2>
-4.324897289276123

> <Hybrid2>
-4.045405

$$$$
C16850949
  -OEChem-02152218483D

 59 62  0     1  0  0  0  0  0999 V2000
    6.9619  -29.6349   -8.7935 C   0  0  0  0  0  0  0  0  0  0  0  0
    5.8602  -30.2346   -9.4005 C   0  0  0  0  0  0  0  0  0  0  0  0
    7.1277  -28.2454   -8.8228 C   0  0  0  0  0  0  0  0  0  0  0  0
    4.8914  -29.4680  -10.0543 C   0  0  0  0  0  0  0  0  0  0  0  0
    4.8547  -25.8642  -10.4115 C   0  0  0  0  0  0  0  0  0  0  0  0
    6.1639  -27.4519   -9.4762 C   0  0  0  0  0  0  0  0  0  0  0  0
    6.0145  -26.0539   -9.6959 C   0  0  0  0  0  0  0  0  0  0  0  0
    5.0702  -28.0802  -10.0756 C   0  0  0  0  0  0  0  0  0  0  0  0
   11.0477  -27.9342  -14.2241 C   0  0  0  0  0  0  0  0  0  0  0  0
    9.1167  -25.5858  -12.1749 C   0  0  0  0  0  0  0  0  0  0  0  0
    9.7598  -27.2209  -13.9534 C   0  0  0  0  0  0  0  0  0  0  0  0
   11.9877  -25.2884  -12.7729 C   0  0  0  0  0  0  0  0  0  0  0  0
   11.8836  -26.9669  -10.9049 C   0  0  0  0  0  0  0  0  0  0  0  0
   13.4887  -25.2059  -12.5243 C   0  0  0  0  0  0  0  0  0  0  0  0
    9.9127  -26.8110  -12.5022 C   0  0  1  0  0  0  0  0  0  0  0  0
   11.4281  -26.6547  -12.3390 C   0  0  1  0  0  0  0  0  0  0  0  0
   13.3890  -26.7224  -10.6495 C   0  0  0  0  0  0  0  0  0  0  0  0
   14.2839  -27.8342  -11.2179 C   0  0  0  0  0  0  0  0  0  0  0  0
   13.6266  -26.6644   -9.1311 C   0  0  0  0  0  0  0  0  0  0  0  0
    8.8444  -23.3634   -9.8388 C   0  0  0  0  0  0  0  0  0  0  0  0
    3.0582  -27.3035  -11.3616 C   0  0  0  0  0  0  0  0  0  0  0  0
    6.9538  -24.9663   -9.2327 C   0  0  0  0  0  0  0  0  0  0  0  0
    7.8862  -24.4437  -10.3408 C   0  0  2  0  0  0  0  0  0  0  0  0
    4.2921  -27.0921  -10.6355 N   0  0  0  0  0  0  0  0  0  0  0  0
    8.6701  -25.5375  -10.8681 N   0  0  0  0  0  0  0  0  0  0  0  0
   11.2719  -28.6503  -15.1875 O   0  0  0  0  0  0  0  0  0  0  0  0
    8.9214  -24.7425  -13.0424 O   0  0  0  0  0  0  0  0  0  0  0  0
   11.9502  -27.6553  -13.2385 O   0  0  0  0  0  0  0  0  0  0  0  0
   13.7934  -25.4421  -11.1533 O   0  0  0  0  0  0  0  0  0  0  0  0
    7.7022  -30.2522   -8.2913 H   0  0  0  0  0  0  0  0  0  0  0  0
    5.7510  -31.3157   -9.3661 H   0  0  0  0  0  0  0  0  0  0  0  0
    7.9919  -27.7927   -8.3453 H   0  0  0  0  0  0  0  0  0  0  0  0
    4.0357  -29.9403  -10.5249 H   0  0  0  0  0  0  0  0  0  0  0  0
    4.3860  -24.9612  -10.7802 H   0  0  0  0  0  0  0  0  0  0  0  0
    9.6677  -26.3672  -14.6317 H   0  0  0  0  0  0  0  0  0  0  0  0
    8.9124  -27.8991  -14.0847 H   0  0  0  0  0  0  0  0  0  0  0  0
   11.5073  -24.4898  -12.1957 H   0  0  0  0  0  0  0  0  0  0  0  0
   11.7968  -25.1006  -13.8356 H   0  0  0  0  0  0  0  0  0  0  0  0
   11.3080  -26.3198  -10.2292 H   0  0  0  0  0  0  0  0  0  0  0  0
   11.6381  -28.0045  -10.6442 H   0  0  0  0  0  0  0  0  0  0  0  0
   14.0475  -25.8953  -13.1650 H   0  0  0  0  0  0  0  0  0  0  0  0
   13.8407  -24.1974  -12.7660 H   0  0  0  0  0  0  0  0  0  0  0  0
    9.5415  -27.6247  -11.8656 H   0  0  0  0  0  0  0  0  0  0  0  0
   15.3235  -27.6035  -11.0061 H   0  0  0  0  0  0  0  0  0  0  0  0
   14.1377  -27.9004  -12.2918 H   0  0  0  0  0  0  0  0  0  0  0  0
   14.0199  -28.7806  -10.7558 H   0  0  0  0  0  0  0  0  0  0  0  0
   14.6809  -26.4929   -8.9395 H   0  0  0  0  0  0  0  0  0  0  0  0
   13.3228  -27.6056   -8.6846 H   0  0  0  0  0  0  0  0  0  0  0  0
   13.0421  -25.8539   -8.7076 H   0  0  0  0  0  0  0  0  0  0  0  0
    9.4570  -23.7385   -9.0108 H   0  0  0  0  0  0  0  0  0  0  0  0
    8.3042  -22.4783   -9.4841 H   0  0  0  0  0  0  0  0  0  0  0  0
    9.5316  -23.0459  -10.6297 H   0  0  0  0  0  0  0  0  0  0  0  0
    3.3070  -27.4367  -12.4177 H   0  0  0  0  0  0  0  0  0  0  0  0
    2.5545  -28.1927  -10.9723 H   0  0  0  0  0  0  0  0  0  0  0  0
    2.4068  -26.4354  -11.2276 H   0  0  0  0  0  0  0  0  0  0  0  0
    6.3773  -24.1367   -8.8014 H   0  0  0  0  0  0  0  0  0  0  0  0
    7.5477  -25.3740   -8.4029 H   0  0  0  0  0  0  0  0  0  0  0  0
    7.2954  -24.0277  -11.1651 H   0  0  0  0  0  0  0  0  0  0  0  0
    8.9038  -26.3075  -10.2486 H   0  0  0  0  0  0  0  0  0  0  0  0
  1  2  2  0  0  0  0
  1  3  1  0  0  0  0
  2  4  1  0  0  0  0
  3  6  2  0  0  0  0
  4  8  2  0  0  0  0
  5  7  2  0  0  0  0
  5 24  1  0  0  0  0
  6  7  1  0  0  0  0
  6  8  1  0  0  0  0
  7 22  1  0  0  0  0
  8 24  1  0  0  0  0
  9 11  1  0  0  0  0
  9 26  2  0  0  0  0
  9 28  1  0  0  0  0
 10 15  1  0  0  0  0
 10 25  1  0  0  0  0
 10 27  2  0  0  0  0
 11 15  1  0  0  0  0
 12 14  1  0  0  0  0
 12 16  1  0  0  0  0
 13 16  1  0  0  0  0
 13 17  1  0  0  0  0
 14 29  1  0  0  0  0
 15 16  1  0  0  0  0
 16 28  1  0  0  0  0
 17 18  1  0  0  0  0
 17 19  1  0  0  0  0
 17 29  1  0  0  0  0
 20 23  1  0  0  0  0
 21 24  1  0  0  0  0
 22 23  1  0  0  0  0
 23 25  1  0  0  0  0
  1 30  1  0  0  0  0
  2 31  1  0  0  0  0
  3 32  1  0  0  0  0
  4 33  1  0  0  0  0
  5 34  1  0  0  0  0
 11 35  1  0  0  0  0
 11 36  1  0  0  0  0
 12 37  1  0  0  0  0
 12 38  1  0  0  0  0
 13 39  1  0  0  0  0
 13 40  1  0  0  0  0
 14 41  1  0  0  0  0
 14 42  1  0  0  0  0
 15 43  1  0  0  0  0
 18 44  1  0  0  0  0
 18 45  1  0  0  0  0
 18 46  1  0  0  0  0
 19 47  1  0  0  0  0
 19 48  1  0  0  0  0
 19 49  1  0  0  0  0
 20 50  1  0  0  0  0
 20 51  1  0  0  0  0
 20 52  1  0  0  0  0
 21 53  1  0  0  0  0
 21 54  1  0  0  0  0
 21 55  1  0  0  0  0
 22 56  1  0  0  0  0
 22 57  1  0  0  0  0
 23 58  1  0  0  0  0
 25 59  1  0  0  0  0
M  END
> <Hybrid2>
-3.040722370147705

> <Hybrid2>
-3.040722

$$$$
C16850949
  -OEChem-02152218483D

 59 62  0     1  0  0  0  0  0999 V2000
    4.1842  -26.7328   -9.0678 C   0  0  0  0  0  0  0  0  0  0  0  0
    3.6374  -27.7596   -9.8350 C   0  0  0  0  0  0  0  0  0  0  0  0
    5.5063  -26.8037   -8.6142 C   0  0  0  0  0  0  0  0  0  0  0  0
    4.3916  -28.8869  -10.1729 C   0  0  0  0  0  0  0  0  0  0  0  0
    7.8316  -29.5501   -9.2550 C   0  0  0  0  0  0  0  0  0  0  0  0
    6.2860  -27.9306   -8.9422 C   0  0  0  0  0  0  0  0  0  0  0  0
    7.6237  -28.3265   -8.6612 C   0  0  0  0  0  0  0  0  0  0  0  0
    5.7118  -28.9441   -9.7125 C   0  0  0  0  0  0  0  0  0  0  0  0
   11.5276  -26.8278  -14.3080 C   0  0  0  0  0  0  0  0  0  0  0  0
   10.0951  -26.2144  -10.9891 C   0  0  0  0  0  0  0  0  0  0  0  0
   10.3305  -26.5398  -13.4567 C   0  0  0  0  0  0  0  0  0  0  0  0
   12.7602  -25.2857  -11.8397 C   0  0  0  0  0  0  0  0  0  0  0  0
   13.0788  -27.7030  -11.2292 C   0  0  0  0  0  0  0  0  0  0  0  0
   14.2787  -25.1630  -11.8684 C   0  0  0  0  0  0  0  0  0  0  0  0
   10.8014  -26.9600  -12.0787 C   0  0  1  0  0  0  0  0  0  0  0  0
   12.3148  -26.7281  -12.1387 C   0  0  1  0  0  0  0  0  0  0  0  0
   14.6027  -27.4485  -11.1637 C   0  0  0  0  0  0  0  0  0  0  0  0
   15.3514  -27.9574  -12.4048 C   0  0  0  0  0  0  0  0  0  0  0  0
   15.1721  -28.1874   -9.9410 C   0  0  0  0  0  0  0  0  0  0  0  0
   10.3439  -25.6531   -7.8121 C   0  0  0  0  0  0  0  0  0  0  0  0
    6.4991  -31.1471  -10.6246 C   0  0  0  0  0  0  0  0  0  0  0  0
    8.6397  -27.5517   -7.8567 C   0  0  0  0  0  0  0  0  0  0  0  0
    9.3008  -26.4032   -8.6405 C   0  0  2  0  0  0  0  0  0  0  0  0
    6.6729  -29.9143   -9.8868 N   0  0  0  0  0  0  0  0  0  0  0  0
    9.9504  -26.9332   -9.8179 N   0  0  0  0  0  0  0  0  0  0  0  0
   11.5336  -26.8782  -15.5282 O   0  0  0  0  0  0  0  0  0  0  0  0
    9.7095  -25.0692  -11.1926 O   0  0  0  0  0  0  0  0  0  0  0  0
   12.6261  -27.0128  -13.5188 O   0  0  0  0  0  0  0  0  0  0  0  0
   14.8815  -26.0596  -10.9404 O   0  0  0  0  0  0  0  0  0  0  0  0
    3.5777  -25.8662   -8.8176 H   0  0  0  0  0  0  0  0  0  0  0  0
    2.6082  -27.6844  -10.1768 H   0  0  0  0  0  0  0  0  0  0  0  0
    5.9183  -25.9954   -8.0168 H   0  0  0  0  0  0  0  0  0  0  0  0
    3.9607  -29.6831  -10.7706 H   0  0  0  0  0  0  0  0  0  0  0  0
    8.7037  -30.1904   -9.2785 H   0  0  0  0  0  0  0  0  0  0  0  0
   10.0874  -25.4748  -13.5195 H   0  0  0  0  0  0  0  0  0  0  0  0
    9.4767  -27.1406  -13.7821 H   0  0  0  0  0  0  0  0  0  0  0  0
   12.4182  -24.9907  -10.8408 H   0  0  0  0  0  0  0  0  0  0  0  0
   12.3371  -24.5812  -12.5647 H   0  0  0  0  0  0  0  0  0  0  0  0
   12.6664  -27.5993  -10.2164 H   0  0  0  0  0  0  0  0  0  0  0  0
   12.9001  -28.7389  -11.5453 H   0  0  0  0  0  0  0  0  0  0  0  0
   14.6826  -25.3230  -12.8730 H   0  0  0  0  0  0  0  0  0  0  0  0
   14.5655  -24.1483  -11.5726 H   0  0  0  0  0  0  0  0  0  0  0  0
   10.5833  -28.0272  -11.9423 H   0  0  0  0  0  0  0  0  0  0  0  0
   16.4115  -27.7491  -12.2965 H   0  0  0  0  0  0  0  0  0  0  0  0
   14.9701  -27.4530  -13.2874 H   0  0  0  0  0  0  0  0  0  0  0  0
   15.1993  -29.0279  -12.5034 H   0  0  0  0  0  0  0  0  0  0  0  0
   16.2421  -28.0158   -9.8847 H   0  0  0  0  0  0  0  0  0  0  0  0
   14.9778  -29.2503  -10.0421 H   0  0  0  0  0  0  0  0  0  0  0  0
   14.6945  -27.8128   -9.0414 H   0  0  0  0  0  0  0  0  0  0  0  0
   11.1264  -26.3347   -7.4590 H   0  0  0  0  0  0  0  0  0  0  0  0
    9.8940  -25.1738   -6.9354 H   0  0  0  0  0  0  0  0  0  0  0  0
   10.8370  -24.8769   -8.4062 H   0  0  0  0  0  0  0  0  0  0  0  0
    6.1344  -31.9077   -9.9292 H   0  0  0  0  0  0  0  0  0  0  0  0
    5.7783  -30.9899  -11.4317 H   0  0  0  0  0  0  0  0  0  0  0  0
    7.4581  -31.4492  -11.0547 H   0  0  0  0  0  0  0  0  0  0  0  0
    8.1716  -27.1644   -6.9417 H   0  0  0  0  0  0  0  0  0  0  0  0
    9.4045  -28.2639   -7.5168 H   0  0  0  0  0  0  0  0  0  0  0  0
    8.5402  -25.6868   -8.9721 H   0  0  0  0  0  0  0  0  0  0  0  0
   10.3182  -27.8792   -9.7826 H   0  0  0  0  0  0  0  0  0  0  0  0
  1  2  2  0  0  0  0
  1  3  1  0  0  0  0
  2  4  1  0  0  0  0
  3  6  2  0  0  0  0
  4  8  2  0  0  0  0
  5  7  2  0  0  0  0
  5 24  1  0  0  0  0
  6  7  1  0  0  0  0
  6  8  1  0  0  0  0
  7 22  1  0  0  0  0
  8 24  1  0  0  0  0
  9 11  1  0  0  0  0
  9 26  2  0  0  0  0
  9 28  1  0  0  0  0
 10 15  1  0  0  0  0
 10 25  1  0  0  0  0
 10 27  2  0  0  0  0
 11 15  1  0  0  0  0
 12 14  1  0  0  0  0
 12 16  1  0  0  0  0
 13 16  1  0  0  0  0
 13 17  1  0  0  0  0
 14 29  1  0  0  0  0
 15 16  1  0  0  0  0
 16 28  1  0  0  0  0
 17 18  1  0  0  0  0
 17 19  1  0  0  0  0
 17 29  1  0  0  0  0
 20 23  1  0  0  0  0
 21 24  1  0  0  0  0
 22 23  1  0  0  0  0
 23 25  1  0  0  0  0
  1 30  1  0  0  0  0
  2 31  1  0  0  0  0
  3 32  1  0  0  0  0
  4 33  1  0  0  0  0
  5 34  1  0  0  0  0
 11 35  1  0  0  0  0
 11 36  1  0  0  0  0
 12 37  1  0  0  0  0
 12 38  1  0  0  0  0
 13 39  1  0  0  0  0
 13 40  1  0  0  0  0
 14 41  1  0  0  0  0
 14 42  1  0  0  0  0
 15 43  1  0  0  0  0
 18 44  1  0  0  0  0
 18 45  1  0  0  0  0
 18 46  1  0  0  0  0
 19 47  1  0  0  0  0
 19 48  1  0  0  0  0
 19 49  1  0  0  0  0
 20 50  1  0  0  0  0
 20 51  1  0  0  0  0
 20 52  1  0  0  0  0
 21 53  1  0  0  0  0
 21 54  1  0  0  0  0
 21 55  1  0  0  0  0
 22 56  1  0  0  0  0
 22 57  1  0  0  0  0
 23 58  1  0  0  0  0
 25 59  1  0  0  0  0
M  END
> <Hybrid2>
-3.040722370147705

> <Hybrid2>
-2.235635

$$$$
C20645320
  -OEChem-02152218483D

 49 53  0     1  0  0  0  0  0999 V2000
    6.3916  -30.2103   -8.3712 C   0  0  0  0  0  0  0  0  0  0  0  0
    5.3377  -29.4818   -7.8211 C   0  0  0  0  0  0  0  0  0  0  0  0
    7.4693  -29.5474   -8.9606 C   0  0  0  0  0  0  0  0  0  0  0  0
    5.3588  -28.0879   -7.8589 C   0  0  0  0  0  0  0  0  0  0  0  0
    7.4902  -28.1488   -8.9985 C   0  0  0  0  0  0  0  0  0  0  0  0
    6.4383  -27.4257   -8.4491 C   0  0  0  0  0  0  0  0  0  0  0  0
   14.5635  -26.9919  -10.0588 C   0  0  0  0  0  0  0  0  0  0  0  0
   14.3059  -28.1517  -10.6685 C   0  0  0  0  0  0  0  0  0  0  0  0
   14.1778  -25.7434  -10.6527 C   0  0  0  0  0  0  0  0  0  0  0  0
    8.6196  -27.4281   -9.6187 C   0  0  0  0  0  0  0  0  0  0  0  0
   13.5465  -25.7113  -11.8390 C   0  0  0  0  0  0  0  0  0  0  0  0
   13.6310  -28.1569  -11.9964 C   0  0  0  0  0  0  0  0  0  0  0  0
    7.4730  -25.2859   -9.0425 C   0  0  0  0  0  0  0  0  0  0  0  0
    9.6970  -25.6376  -11.6665 C   0  0  0  0  0  0  0  0  0  0  0  0
   13.1054  -24.4365  -13.9569 C   0  0  0  0  0  0  0  0  0  0  0  0
   11.6713  -24.0569  -11.9359 C   0  0  0  0  0  0  0  0  0  0  0  0
   12.7023  -26.8894  -13.8750 C   0  0  0  0  0  0  0  0  0  0  0  0
   10.7328  -25.2728  -13.8801 C   0  0  0  0  0  0  0  0  0  0  0  0
   13.0926  -24.3899  -12.4303 C   0  0  1  0  0  0  0  0  0  0  0  0
   12.1586  -25.5504  -14.3874 C   0  0  1  0  0  0  0  0  0  0  0  0
    9.6522  -25.2647  -10.2062 C   0  0  0  0  0  0  0  0  0  0  0  0
    6.4540  -26.0298   -8.4841 N   0  0  0  0  0  0  0  0  0  0  0  0
    8.5736  -25.9993   -9.6181 N   0  0  0  0  0  0  0  0  0  0  0  0
   13.2750  -26.9012  -12.5230 N   0  0  0  0  0  0  0  0  0  0  0  0
   10.6872  -25.0280  -12.4372 N   0  0  0  0  0  0  0  0  0  0  0  0
    9.5384  -28.0846  -10.1043 O   0  0  0  0  0  0  0  0  0  0  0  0
   13.4358  -29.2374  -12.5532 O   0  0  0  0  0  0  0  0  0  0  0  0
    8.8800  -26.4507  -12.1064 O   0  0  0  0  0  0  0  0  0  0  0  0
    7.3253  -23.6062   -8.9958 S   0  0  0  0  0  0  0  0  0  0  0  0
    6.3739  -31.2960   -8.3412 H   0  0  0  0  0  0  0  0  0  0  0  0
    4.5003  -29.9999   -7.3631 H   0  0  0  0  0  0  0  0  0  0  0  0
    8.2784  -30.1370   -9.3826 H   0  0  0  0  0  0  0  0  0  0  0  0
    4.5318  -27.5305   -7.4269 H   0  0  0  0  0  0  0  0  0  0  0  0
   15.0600  -26.9692   -9.0951 H   0  0  0  0  0  0  0  0  0  0  0  0
   14.5865  -29.1019  -10.2300 H   0  0  0  0  0  0  0  0  0  0  0  0
   14.3910  -24.8365  -10.0967 H   0  0  0  0  0  0  0  0  0  0  0  0
   12.7802  -23.4750  -14.3729 H   0  0  0  0  0  0  0  0  0  0  0  0
   14.1192  -24.6233  -14.3327 H   0  0  0  0  0  0  0  0  0  0  0  0
   11.6584  -23.9939  -10.8455 H   0  0  0  0  0  0  0  0  0  0  0  0
   11.3632  -23.0737  -12.3128 H   0  0  0  0  0  0  0  0  0  0  0  0
   11.9308  -27.6674  -13.9355 H   0  0  0  0  0  0  0  0  0  0  0  0
   13.5124  -27.2169  -14.5411 H   0  0  0  0  0  0  0  0  0  0  0  0
   10.3368  -24.3709  -14.3631 H   0  0  0  0  0  0  0  0  0  0  0  0
   10.0678  -26.0987  -14.1539 H   0  0  0  0  0  0  0  0  0  0  0  0
   13.7684  -23.5870  -12.1083 H   0  0  0  0  0  0  0  0  0  0  0  0
   12.1241  -25.5884  -15.4833 H   0  0  0  0  0  0  0  0  0  0  0  0
    9.4846  -24.1940  -10.1347 H   0  0  0  0  0  0  0  0  0  0  0  0
   10.6037  -25.5350   -9.7578 H   0  0  0  0  0  0  0  0  0  0  0  0
    5.6675  -25.5348   -8.0730 H   0  0  0  0  0  0  0  0  0  0  0  0
  1  2  1  0  0  0  0
  1  3  2  0  0  0  0
  2  4  2  0  0  0  0
  3  5  1  0  0  0  0
  4  6  1  0  0  0  0
  5  6  2  0  0  0  0
  5 10  1  0  0  0  0
  6 22  1  0  0  0  0
  7  8  2  0  0  0  0
  7  9  1  0  0  0  0
  8 12  1  0  0  0  0
  9 11  2  0  0  0  0
 10 23  1  0  0  0  0
 10 26  2  0  0  0  0
 11 19  1  0  0  0  0
 11 24  1  0  0  0  0
 12 24  1  0  0  0  0
 12 27  2  0  0  0  0
 13 22  1  0  0  0  0
 13 23  1  0  0  0  0
 13 29  2  0  0  0  0
 14 21  1  0  0  0  0
 14 25  1  0  0  0  0
 14 28  2  0  0  0  0
 15 19  1  0  0  0  0
 15 20  1  0  0  0  0
 16 19  1  0  0  0  0
 16 25  1  0  0  0  0
 17 20  1  0  0  0  0
 17 24  1  0  0  0  0
 18 20  1  0  0  0  0
 18 25  1  0  0  0  0
 21 23  1  0  0  0  0
  1 30  1  0  0  0  0
  2 31  1  0  0  0  0
  3 32  1  0  0  0  0
  4 33  1  0  0  0  0
  7 34  1  0  0  0  0
  8 35  1  0  0  0  0
  9 36  1  0  0  0  0
 15 37  1  0  0  0  0
 15 38  1  0  0  0  0
 16 39  1  0  0  0  0
 16 40  1  0  0  0  0
 17 41  1  0  0  0  0
 17 42  1  0  0  0  0
 18 43  1  0  0  0  0
 18 44  1  0  0  0  0
 19 45  1  0  0  0  0
 20 46  1  0  0  0  0
 21 47  1  0  0  0  0
 21 48  1  0  0  0  0
 22 49  1  0  0  0  0
M  END
> <Hybrid2>
-5.735503196716309

> <Hybrid2>
-5.735503

$$$$
C20645320
  -OEChem-02152218483D

 49 53  0     1  0  0  0  0  0999 V2000
    5.6239  -30.6288   -8.1676 C   0  0  0  0  0  0  0  0  0  0  0  0
    4.5732  -29.7140   -8.2239 C   0  0  0  0  0  0  0  0  0  0  0  0
    6.9093  -30.2442   -8.5524 C   0  0  0  0  0  0  0  0  0  0  0  0
    4.8052  -28.4117   -8.6654 C   0  0  0  0  0  0  0  0  0  0  0  0
    7.1419  -28.9374   -8.9954 C   0  0  0  0  0  0  0  0  0  0  0  0
    6.0924  -28.0282   -9.0502 C   0  0  0  0  0  0  0  0  0  0  0  0
   15.0494  -27.5914  -10.8536 C   0  0  0  0  0  0  0  0  0  0  0  0
   14.9038  -28.5159  -11.8061 C   0  0  0  0  0  0  0  0  0  0  0  0
   14.4471  -26.2951  -10.9840 C   0  0  0  0  0  0  0  0  0  0  0  0
    8.4934  -28.5107   -9.4087 C   0  0  0  0  0  0  0  0  0  0  0  0
   13.7201  -25.9798  -12.0698 C   0  0  0  0  0  0  0  0  0  0  0  0
   14.1271  -28.1964  -13.0364 C   0  0  0  0  0  0  0  0  0  0  0  0
    7.5515  -26.2490   -9.8911 C   0  0  0  0  0  0  0  0  0  0  0  0
    9.9253  -26.5742  -11.7537 C   0  0  0  0  0  0  0  0  0  0  0  0
   12.9317  -24.1733  -13.6255 C   0  0  0  0  0  0  0  0  0  0  0  0
   11.6334  -24.7011  -11.5467 C   0  0  0  0  0  0  0  0  0  0  0  0
   12.8785  -26.5512  -14.3527 C   0  0  0  0  0  0  0  0  0  0  0  0
   10.7117  -25.3524  -13.7524 C   0  0  0  0  0  0  0  0  0  0  0  0
   13.0406  -24.6271  -12.1711 C   0  0  1  0  0  0  0  0  0  0  0  0
   12.1146  -25.2219  -14.3708 C   0  0  1  0  0  0  0  0  0  0  0  0
    9.9521  -26.7072  -10.2521 C   0  0  0  0  0  0  0  0  0  0  0  0
    6.3189  -26.7228   -9.4915 N   0  0  0  0  0  0  0  0  0  0  0  0
    8.6559  -27.1599   -9.8473 N   0  0  0  0  0  0  0  0  0  0  0  0
   13.5588  -26.9106  -13.1019 N   0  0  0  0  0  0  0  0  0  0  0  0
   10.7540  -25.5994  -12.3099 N   0  0  0  0  0  0  0  0  0  0  0  0
    9.4080  -29.3304   -9.3586 O   0  0  0  0  0  0  0  0  0  0  0  0
   14.0367  -29.0542  -13.9147 O   0  0  0  0  0  0  0  0  0  0  0  0
    9.1942  -27.3187  -12.4120 O   0  0  0  0  0  0  0  0  0  0  0  0
    7.6406  -24.6416  -10.3952 S   0  0  0  0  0  0  0  0  0  0  0  0
    5.4418  -31.6429   -7.8236 H   0  0  0  0  0  0  0  0  0  0  0  0
    3.5739  -30.0157   -7.9239 H   0  0  0  0  0  0  0  0  0  0  0  0
    7.7115  -30.9751   -8.4998 H   0  0  0  0  0  0  0  0  0  0  0  0
    3.9785  -27.7072   -8.7051 H   0  0  0  0  0  0  0  0  0  0  0  0
   15.6171  -27.8046   -9.9547 H   0  0  0  0  0  0  0  0  0  0  0  0
   15.3484  -29.5001  -11.7192 H   0  0  0  0  0  0  0  0  0  0  0  0
   14.5792  -25.5960  -10.1649 H   0  0  0  0  0  0  0  0  0  0  0  0
   12.4434  -23.1929  -13.6860 H   0  0  0  0  0  0  0  0  0  0  0  0
   13.9265  -24.0657  -14.0758 H   0  0  0  0  0  0  0  0  0  0  0  0
   11.7035  -24.9982  -10.4979 H   0  0  0  0  0  0  0  0  0  0  0  0
   11.1624  -23.7104  -11.5637 H   0  0  0  0  0  0  0  0  0  0  0  0
   12.2193  -27.3789  -14.6432 H   0  0  0  0  0  0  0  0  0  0  0  0
   13.6673  -26.5128  -15.1165 H   0  0  0  0  0  0  0  0  0  0  0  0
   10.1563  -24.4170  -13.8935 H   0  0  0  0  0  0  0  0  0  0  0  0
   10.1462  -26.1387  -14.2635 H   0  0  0  0  0  0  0  0  0  0  0  0
   13.6239  -23.8762  -11.6227 H   0  0  0  0  0  0  0  0  0  0  0  0
   11.9939  -24.9072  -15.4148 H   0  0  0  0  0  0  0  0  0  0  0  0
   10.1787  -25.7328   -9.8294 H   0  0  0  0  0  0  0  0  0  0  0  0
   10.7210  -27.4278   -9.9891 H   0  0  0  0  0  0  0  0  0  0  0  0
    5.5275  -26.0858   -9.5185 H   0  0  0  0  0  0  0  0  0  0  0  0
  1  2  1  0  0  0  0
  1  3  2  0  0  0  0
  2  4  2  0  0  0  0
  3  5  1  0  0  0  0
  4  6  1  0  0  0  0
  5  6  2  0  0  0  0
  5 10  1  0  0  0  0
  6 22  1  0  0  0  0
  7  8  2  0  0  0  0
  7  9  1  0  0  0  0
  8 12  1  0  0  0  0
  9 11  2  0  0  0  0
 10 23  1  0  0  0  0
 10 26  2  0  0  0  0
 11 19  1  0  0  0  0
 11 24  1  0  0  0  0
 12 24  1  0  0  0  0
 12 27  2  0  0  0  0
 13 22  1  0  0  0  0
 13 23  1  0  0  0  0
 13 29  2  0  0  0  0
 14 21  1  0  0  0  0
 14 25  1  0  0  0  0
 14 28  2  0  0  0  0
 15 19  1  0  0  0  0
 15 20  1  0  0  0  0
 16 19  1  0  0  0  0
 16 25  1  0  0  0  0
 17 20  1  0  0  0  0
 17 24  1  0  0  0  0
 18 20  1  0  0  0  0
 18 25  1  0  0  0  0
 21 23  1  0  0  0  0
  1 30  1  0  0  0  0
  2 31  1  0  0  0  0
  3 32  1  0  0  0  0
  4 33  1  0  0  0  0
  7 34  1  0  0  0  0
  8 35  1  0  0  0  0
  9 36  1  0  0  0  0
 15 37  1  0  0  0  0
 15 38  1  0  0  0  0
 16 39  1  0  0  0  0
 16 40  1  0  0  0  0
 17 41  1  0  0  0  0
 17 42  1  0  0  0  0
 18 43  1  0  0  0  0
 18 44  1  0  0  0  0
 19 45  1  0  0  0  0
 20 46  1  0  0  0  0
 21 47  1  0  0  0  0
 21 48  1  0  0  0  0
 22 49  1  0  0  0  0
M  END
> <Hybrid2>
-5.735503196716309

> <Hybrid2>
-3.713204

$$$$
C21623197
  -OEChem-02152218483D

 43 45  0     1  0  0  0  0  0999 V2000
    6.8248  -27.0048   -8.7416 C   0  0  0  0  0  0  0  0  0  0  0  0
    8.3941  -28.4034   -9.9326 C   0  0  0  0  0  0  0  0  0  0  0  0
    6.0965  -28.1358   -8.3730 C   0  0  0  0  0  0  0  0  0  0  0  0
    7.6658  -29.5345   -9.5640 C   0  0  0  0  0  0  0  0  0  0  0  0
    9.2503  -24.0871  -10.7480 C   0  0  0  0  0  0  0  0  0  0  0  0
    8.2023  -24.9685  -10.6246 C   0  0  0  0  0  0  0  0  0  0  0  0
    7.9736  -27.1385   -9.5214 C   0  0  0  0  0  0  0  0  0  0  0  0
    6.5170  -29.4007   -8.7842 C   0  0  0  0  0  0  0  0  0  0  0  0
   10.0074  -25.7145   -9.6041 C   0  0  0  0  0  0  0  0  0  0  0  0
   12.7668  -27.1032  -10.7397 C   0  0  0  0  0  0  0  0  0  0  0  0
   13.4122  -26.4376  -13.9247 C   0  0  0  0  0  0  0  0  0  0  0  0
   13.2360  -24.9503  -14.2202 C   0  0  0  0  0  0  0  0  0  0  0  0
   10.9683  -26.3253  -13.8986 C   0  0  0  0  0  0  0  0  0  0  0  0
   12.1727  -26.8944  -13.1481 C   0  0  2  0  0  0  0  0  0  0  0  0
   13.7886  -26.7527   -8.4631 C   0  0  0  0  0  0  0  0  0  0  0  0
   12.6635  -26.3642   -9.4135 C   0  0  2  0  0  0  0  0  0  0  0  0
   10.3712  -24.5574  -10.1108 N   0  0  0  0  0  0  0  0  0  0  0  0
    8.7026  -26.0063   -9.8898 N   0  0  0  0  0  0  0  0  0  0  0  0
   12.2103  -26.3881  -11.7912 N   0  0  0  0  0  0  0  0  0  0  0  0
   13.2767  -28.2174  -10.8412 O   0  0  0  0  0  0  0  0  0  0  0  0
   11.2700  -24.7078  -15.9597 O   0  0  0  0  0  0  0  0  0  0  0  0
   10.9914  -23.6963  -13.6503 O   0  0  0  0  0  0  0  0  0  0  0  0
   11.0542  -26.7819   -8.6657 S   0  0  0  0  0  0  0  0  0  0  0  0
   11.4908  -24.7338  -14.5287 S   0  0  0  0  0  0  0  0  0  0  0  0
    5.5306  -30.9332   -8.2836 Br  0  0  0  0  0  0  0  0  0  0  0  0
    6.4855  -26.0250   -8.4144 H   0  0  0  0  0  0  0  0  0  0  0  0
    9.2876  -28.5216  -10.5407 H   0  0  0  0  0  0  0  0  0  0  0  0
    5.2037  -28.0148   -7.7648 H   0  0  0  0  0  0  0  0  0  0  0  0
    8.0070  -30.5129   -9.8926 H   0  0  0  0  0  0  0  0  0  0  0  0
    9.2547  -23.1376  -11.2630 H   0  0  0  0  0  0  0  0  0  0  0  0
    7.1829  -24.9413  -10.9858 H   0  0  0  0  0  0  0  0  0  0  0  0
   13.4642  -26.9912  -14.8709 H   0  0  0  0  0  0  0  0  0  0  0  0
   14.3440  -26.6334  -13.3842 H   0  0  0  0  0  0  0  0  0  0  0  0
   13.5038  -24.3395  -13.3534 H   0  0  0  0  0  0  0  0  0  0  0  0
   13.8078  -24.6293  -15.0933 H   0  0  0  0  0  0  0  0  0  0  0  0
   10.7255  -26.9524  -14.7623 H   0  0  0  0  0  0  0  0  0  0  0  0
   10.0790  -26.2057  -13.2750 H   0  0  0  0  0  0  0  0  0  0  0  0
   12.1171  -27.9751  -13.0749 H   0  0  0  0  0  0  0  0  0  0  0  0
   13.8029  -27.8286   -8.2537 H   0  0  0  0  0  0  0  0  0  0  0  0
   14.7600  -26.4992   -8.9028 H   0  0  0  0  0  0  0  0  0  0  0  0
   13.7078  -26.2176   -7.5105 H   0  0  0  0  0  0  0  0  0  0  0  0
   12.6965  -25.2832   -9.5870 H   0  0  0  0  0  0  0  0  0  0  0  0
   11.7696  -25.4914  -11.6074 H   0  0  0  0  0  0  0  0  0  0  0  0
  1  3  2  0  0  0  0
  1  7  1  0  0  0  0
  2  4  1  0  0  0  0
  2  7  2  0  0  0  0
  3  8  1  0  0  0  0
  4  8  2  0  0  0  0
  5  6  2  0  0  0  0
  5 17  1  0  0  0  0
  6 18  1  0  0  0  0
  7 18  1  0  0  0  0
  8 25  1  0  0  0  0
  9 17  2  0  0  0  0
  9 18  1  0  0  0  0
  9 23  1  0  0  0  0
 10 16  1  0  0  0  0
 10 19  1  0  0  0  0
 10 20  2  0  0  0  0
 11 12  1  0  0  0  0
 11 14  1  0  0  0  0
 12 24  1  0  0  0  0
 13 14  1  0  0  0  0
 13 24  1  0  0  0  0
 14 19  1  0  0  0  0
 15 16  1  0  0  0  0
 16 23  1  0  0  0  0
 21 24  2  0  0  0  0
 22 24  2  0  0  0  0
  1 26  1  0  0  0  0
  2 27  1  0  0  0  0
  3 28  1  0  0  0  0
  4 29  1  0  0  0  0
  5 30  1  0  0  0  0
  6 31  1  0  0  0  0
 11 32  1  0  0  0  0
 11 33  1  0  0  0  0
 12 34  1  0  0  0  0
 12 35  1  0  0  0  0
 13 36  1  0  0  0  0
 13 37  1  0  0  0  0
 14 38  1  0  0  0  0
 15 39  1  0  0  0  0
 15 40  1  0  0  0  0
 15 41  1  0  0  0  0
 16 42  1  0  0  0  0
 19 43  1  0  0  0  0
M  END
> <Hybrid2>
-3.6774001121520996

> <Hybrid2>
-3.677400

$$$$
C21623197
  -OEChem-02152218483D

 43 45  0     1  0  0  0  0  0999 V2000
    6.4055  -27.8839   -8.7887 C   0  0  0  0  0  0  0  0  0  0  0  0
    8.1268  -29.0996   -9.9704 C   0  0  0  0  0  0  0  0  0  0  0  0
    5.7747  -29.0865   -8.4702 C   0  0  0  0  0  0  0  0  0  0  0  0
    7.4960  -30.3022   -9.6519 C   0  0  0  0  0  0  0  0  0  0  0  0
    8.6042  -24.7020  -10.6495 C   0  0  0  0  0  0  0  0  0  0  0  0
    7.6387  -25.6783  -10.5787 C   0  0  0  0  0  0  0  0  0  0  0  0
    7.5815  -27.8904   -9.5388 C   0  0  0  0  0  0  0  0  0  0  0  0
    6.3200  -30.2957   -8.9018 C   0  0  0  0  0  0  0  0  0  0  0  0
    9.4776  -26.2855   -9.5269 C   0  0  0  0  0  0  0  0  0  0  0  0
   12.3812  -27.3846  -10.6193 C   0  0  0  0  0  0  0  0  0  0  0  0
   13.0451  -26.5732  -13.7664 C   0  0  0  0  0  0  0  0  0  0  0  0
   12.7409  -25.1004  -14.0284 C   0  0  0  0  0  0  0  0  0  0  0  0
   10.6013  -26.6845  -13.8068 C   0  0  0  0  0  0  0  0  0  0  0  0
   11.8330  -27.1627  -13.0374 C   0  0  2  0  0  0  0  0  0  0  0  0
   13.3072  -27.0071   -8.3064 C   0  0  0  0  0  0  0  0  0  0  0  0
   12.1762  -26.6959   -9.2779 C   0  0  2  0  0  0  0  0  0  0  0  0
    9.7466  -25.0862   -9.9932 N   0  0  0  0  0  0  0  0  0  0  0  0
    8.2129  -26.6865   -9.8570 N   0  0  0  0  0  0  0  0  0  0  0  0
   11.7889  -26.6936  -11.6673 N   0  0  0  0  0  0  0  0  0  0  0  0
   12.9936  -28.4445  -10.7350 O   0  0  0  0  0  0  0  0  0  0  0  0
   10.8066  -24.9887  -15.8161 O   0  0  0  0  0  0  0  0  0  0  0  0
   10.3767  -24.0724  -13.4902 O   0  0  0  0  0  0  0  0  0  0  0  0
   10.5932  -27.2793   -8.5871 S   0  0  0  0  0  0  0  0  0  0  0  0
   10.9918  -25.0349  -14.3805 S   0  0  0  0  0  0  0  0  0  0  0  0
    5.4657  -31.9251   -8.4691 Br  0  0  0  0  0  0  0  0  0  0  0  0
    5.9694  -26.9487   -8.4461 H   0  0  0  0  0  0  0  0  0  0  0  0
    9.0429  -29.1188  -10.5558 H   0  0  0  0  0  0  0  0  0  0  0  0
    4.8591  -29.0645   -7.8847 H   0  0  0  0  0  0  0  0  0  0  0  0
    7.9340  -31.2359   -9.9958 H   0  0  0  0  0  0  0  0  0  0  0  0
    8.5348  -23.7419  -11.1395 H   0  0  0  0  0  0  0  0  0  0  0  0
    6.6308  -25.7337  -10.9678 H   0  0  0  0  0  0  0  0  0  0  0  0
   13.1721  -27.0928  -14.7247 H   0  0  0  0  0  0  0  0  0  0  0  0
   13.9766  -26.6986  -13.2050 H   0  0  0  0  0  0  0  0  0  0  0  0
   12.9290  -24.4924  -13.1388 H   0  0  0  0  0  0  0  0  0  0  0  0
   13.3032  -24.7040  -14.8764 H   0  0  0  0  0  0  0  0  0  0  0  0
   10.4395  -27.3065  -14.6930 H   0  0  0  0  0  0  0  0  0  0  0  0
    9.6889  -26.6640  -13.2058 H   0  0  0  0  0  0  0  0  0  0  0  0
   11.8749  -28.2456  -12.9937 H   0  0  0  0  0  0  0  0  0  0  0  0
   13.4148  -28.0828   -8.1244 H   0  0  0  0  0  0  0  0  0  0  0  0
   14.2624  -26.6539   -8.7116 H   0  0  0  0  0  0  0  0  0  0  0  0
   13.1531  -26.5087   -7.3429 H   0  0  0  0  0  0  0  0  0  0  0  0
   12.1144  -25.6119   -9.4225 H   0  0  0  0  0  0  0  0  0  0  0  0
   11.2632  -25.8463  -11.4730 H   0  0  0  0  0  0  0  0  0  0  0  0
  1  3  2  0  0  0  0
  1  7  1  0  0  0  0
  2  4  1  0  0  0  0
  2  7  2  0  0  0  0
  3  8  1  0  0  0  0
  4  8  2  0  0  0  0
  5  6  2  0  0  0  0
  5 17  1  0  0  0  0
  6 18  1  0  0  0  0
  7 18  1  0  0  0  0
  8 25  1  0  0  0  0
  9 17  2  0  0  0  0
  9 18  1  0  0  0  0
  9 23  1  0  0  0  0
 10 16  1  0  0  0  0
 10 19  1  0  0  0  0
 10 20  2  0  0  0  0
 11 12  1  0  0  0  0
 11 14  1  0  0  0  0
 12 24  1  0  0  0  0
 13 14  1  0  0  0  0
 13 24  1  0  0  0  0
 14 19  1  0  0  0  0
 15 16  1  0  0  0  0
 16 23  1  0  0  0  0
 21 24  2  0  0  0  0
 22 24  2  0  0  0  0
  1 26  1  0  0  0  0
  2 27  1  0  0  0  0
  3 28  1  0  0  0  0
  4 29  1  0  0  0  0
  5 30  1  0  0  0  0
  6 31  1  0  0  0  0
 11 32  1  0  0  0  0
 11 33  1  0  0  0  0
 12 34  1  0  0  0  0
 12 35  1  0  0  0  0
 13 36  1  0  0  0  0
 13 37  1  0  0  0  0
 14 38  1  0  0  0  0
 15 39  1  0  0  0  0
 15 40  1  0  0  0  0
 15 41  1  0  0  0  0
 16 42  1  0  0  0  0
 19 43  1  0  0  0  0
M  END
> <Hybrid2>
-3.6774001121520996

> <Hybrid2>
-3.476412

$$$$
C24987383
  -OEChem-02152218483D

 59 62  0     1  0  0  0  0  0999 V2000
   15.0894  -27.9617  -10.9745 C   0  0  0  0  0  0  0  0  0  0  0  0
   14.4200  -28.1939   -9.7730 C   0  0  0  0  0  0  0  0  0  0  0  0
   14.4801  -27.2088  -11.9782 C   0  0  0  0  0  0  0  0  0  0  0  0
   13.1411  -27.6733   -9.5754 C   0  0  0  0  0  0  0  0  0  0  0  0
    4.2305  -27.0337   -9.1727 C   0  0  0  0  0  0  0  0  0  0  0  0
    4.9680  -28.2285   -9.0728 C   0  0  0  0  0  0  0  0  0  0  0  0
   13.2012  -26.6882  -11.7806 C   0  0  0  0  0  0  0  0  0  0  0  0
   12.5316  -26.9205  -10.5791 C   0  0  0  0  0  0  0  0  0  0  0  0
    4.1759  -29.1671   -9.6937 C   0  0  0  0  0  0  0  0  0  0  0  0
   10.8491  -25.0411  -10.3666 C   0  0  0  0  0  0  0  0  0  0  0  0
    7.7994  -26.7227   -9.2275 C   0  0  0  0  0  0  0  0  0  0  0  0
    4.4625  -30.6138   -9.8411 C   0  0  0  0  0  0  0  0  0  0  0  0
    9.3869  -24.9699   -9.9936 C   0  0  0  0  0  0  0  0  0  0  0  0
    5.9508  -30.8780   -9.5345 C   0  0  0  0  0  0  0  0  0  0  0  0
    6.4523  -30.0810   -8.3096 C   0  0  0  0  0  0  0  0  0  0  0  0
   10.1002  -27.2489  -10.0146 C   0  0  0  0  0  0  0  0  0  0  0  0
    6.2900  -28.5514   -8.4770 C   0  0  1  0  0  0  0  0  0  0  0  0
    8.8793  -26.3788  -10.2297 C   0  0  1  0  0  0  0  0  0  0  0  0
   11.4614  -27.8772  -14.0385 C   0  0  0  0  0  0  0  0  0  0  0  0
   13.3734  -24.5977  -13.1556 C   0  0  0  0  0  0  0  0  0  0  0  0
    1.9274  -29.0749  -10.8114 C   0  0  0  0  0  0  0  0  0  0  0  0
   12.3762  -26.6690  -14.1988 C   0  0  0  0  0  0  0  0  0  0  0  0
   12.5729  -25.8856  -12.8733 C   0  0  1  0  0  0  0  0  0  0  0  0
    3.0655  -27.2005   -9.8098 N   0  0  0  0  0  0  0  0  0  0  0  0
    3.0598  -28.5126  -10.1149 N   0  0  0  0  0  0  0  0  0  0  0  0
   11.2222  -26.3966  -10.3574 N   0  0  0  0  0  0  0  0  0  0  0  0
    7.3198  -28.0157   -9.3350 N   0  0  0  0  0  0  0  0  0  0  0  0
   11.5219  -24.0405  -10.5699 O   0  0  0  0  0  0  0  0  0  0  0  0
    7.4336  -25.8772   -8.4194 O   0  0  0  0  0  0  0  0  0  0  0  0
   16.0848  -28.3673  -11.1289 H   0  0  0  0  0  0  0  0  0  0  0  0
   14.8942  -28.7808   -8.9917 H   0  0  0  0  0  0  0  0  0  0  0  0
   15.0100  -27.0339  -12.9108 H   0  0  0  0  0  0  0  0  0  0  0  0
   12.6300  -27.8610   -8.6346 H   0  0  0  0  0  0  0  0  0  0  0  0
    4.4905  -26.0487   -8.8125 H   0  0  0  0  0  0  0  0  0  0  0  0
    3.8409  -31.1767   -9.1346 H   0  0  0  0  0  0  0  0  0  0  0  0
    4.2258  -30.9679  -10.8501 H   0  0  0  0  0  0  0  0  0  0  0  0
    9.2793  -24.6421   -8.9566 H   0  0  0  0  0  0  0  0  0  0  0  0
    8.9018  -24.2523  -10.6624 H   0  0  0  0  0  0  0  0  0  0  0  0
    6.1011  -31.9506   -9.3659 H   0  0  0  0  0  0  0  0  0  0  0  0
    6.5555  -30.6094  -10.4097 H   0  0  0  0  0  0  0  0  0  0  0  0
    5.8784  -30.4042   -7.4303 H   0  0  0  0  0  0  0  0  0  0  0  0
    7.5003  -30.3305   -8.1040 H   0  0  0  0  0  0  0  0  0  0  0  0
   10.2012  -27.6061   -8.9847 H   0  0  0  0  0  0  0  0  0  0  0  0
   10.1078  -28.1026  -10.7013 H   0  0  0  0  0  0  0  0  0  0  0  0
    6.4052  -28.0655   -7.5035 H   0  0  0  0  0  0  0  0  0  0  0  0
    8.4559  -26.5003  -11.2176 H   0  0  0  0  0  0  0  0  0  0  0  0
   10.4910  -27.5624  -13.6413 H   0  0  0  0  0  0  0  0  0  0  0  0
   11.2825  -28.3767  -14.9954 H   0  0  0  0  0  0  0  0  0  0  0  0
   11.8913  -28.6050  -13.3430 H   0  0  0  0  0  0  0  0  0  0  0  0
   14.3964  -24.8218  -13.4769 H   0  0  0  0  0  0  0  0  0  0  0  0
   12.9021  -23.9973  -13.9412 H   0  0  0  0  0  0  0  0  0  0  0  0
   13.4341  -23.9783  -12.2536 H   0  0  0  0  0  0  0  0  0  0  0  0
    1.2020  -29.4062  -10.0637 H   0  0  0  0  0  0  0  0  0  0  0  0
    1.4859  -28.3147  -11.4618 H   0  0  0  0  0  0  0  0  0  0  0  0
    2.2611  -29.9185  -11.4220 H   0  0  0  0  0  0  0  0  0  0  0  0
   13.3422  -27.0016  -14.5970 H   0  0  0  0  0  0  0  0  0  0  0  0
   11.9370  -26.0101  -14.9586 H   0  0  0  0  0  0  0  0  0  0  0  0
   11.5664  -25.5486  -12.5596 H   0  0  0  0  0  0  0  0  0  0  0  0
    7.7120  -28.6185  -10.0537 H   0  0  0  0  0  0  0  0  0  0  0  0
  1  2  1  0  0  0  0
  1  3  2  0  0  0  0
  2  4  2  0  0  0  0
  3  7  1  0  0  0  0
  4  8  1  0  0  0  0
  5  6  1  0  0  0  0
  5 24  2  0  0  0  0
  6  9  2  0  0  0  0
  6 17  1  0  0  0  0
  7  8  2  0  0  0  0
  7 23  1  0  0  0  0
  8 26  1  0  0  0  0
  9 12  1  0  0  0  0
  9 25  1  0  0  0  0
 10 13  1  0  0  0  0
 10 26  1  0  0  0  0
 10 28  2  0  0  0  0
 11 18  1  0  0  0  0
 11 27  1  0  0  0  0
 11 29  2  0  0  0  0
 12 14  1  0  0  0  0
 13 18  1  0  0  0  0
 14 15  1  0  0  0  0
 15 17  1  0  0  0  0
 16 18  1  0  0  0  0
 16 26  1  0  0  0  0
 17 27  1  0  0  0  0
 19 22  1  0  0  0  0
 20 23  1  0  0  0  0
 21 25  1  0  0  0  0
 22 23  1  0  0  0  0
 24 25  1  0  0  0  0
  1 30  1  0  0  0  0
  2 31  1  0  0  0  0
  3 32  1  0  0  0  0
  4 33  1  0  0  0  0
  5 34  1  0  0  0  0
 12 35  1  0  0  0  0
 12 36  1  0  0  0  0
 13 37  1  0  0  0  0
 13 38  1  0  0  0  0
 14 39  1  0  0  0  0
 14 40  1  0  0  0  0
 15 41  1  0  0  0  0
 15 42  1  0  0  0  0
 16 43  1  0  0  0  0
 16 44  1  0  0  0  0
 17 45  1  0  0  0  0
 18 46  1  0  0  0  0
 19 47  1  0  0  0  0
 19 48  1  0  0  0  0
 19 49  1  0  0  0  0
 20 50  1  0  0  0  0
 20 51  1  0  0  0  0
 20 52  1  0  0  0  0
 21 53  1  0  0  0  0
 21 54  1  0  0  0  0
 21 55  1  0  0  0  0
 22 56  1  0  0  0  0
 22 57  1  0  0  0  0
 23 58  1  0  0  0  0
 27 59  1  0  0  0  0
M  END
> <Hybrid2>
-6.704989433288574

> <Hybrid2>
-6.704989

$$$$
C24987383
  -OEChem-02152218483D

 59 62  0     1  0  0  0  0  0999 V2000
   14.5885  -27.8347  -10.6384 C   0  0  0  0  0  0  0  0  0  0  0  0
   13.9354  -27.8758   -9.4066 C   0  0  0  0  0  0  0  0  0  0  0  0
   13.9353  -27.3178  -11.7573 C   0  0  0  0  0  0  0  0  0  0  0  0
   12.6290  -27.4000   -9.2936 C   0  0  0  0  0  0  0  0  0  0  0  0
    3.6971  -27.1967   -8.9075 C   0  0  0  0  0  0  0  0  0  0  0  0
    4.5021  -28.3087   -8.5960 C   0  0  0  0  0  0  0  0  0  0  0  0
   12.6289  -26.8420  -11.6443 C   0  0  0  0  0  0  0  0  0  0  0  0
   11.9758  -26.8831  -10.4125 C   0  0  0  0  0  0  0  0  0  0  0  0
    3.7642  -29.3896   -9.0214 C   0  0  0  0  0  0  0  0  0  0  0  0
   10.1886  -25.0943  -10.5329 C   0  0  0  0  0  0  0  0  0  0  0  0
    7.2423  -26.7020   -9.0632 C   0  0  0  0  0  0  0  0  0  0  0  0
    4.1329  -30.8200   -8.9003 C   0  0  0  0  0  0  0  0  0  0  0  0
    8.7253  -25.0369  -10.1618 C   0  0  0  0  0  0  0  0  0  0  0  0
    5.6344  -30.9385   -8.5682 C   0  0  0  0  0  0  0  0  0  0  0  0
    6.0914  -29.9001   -7.5194 C   0  0  0  0  0  0  0  0  0  0  0  0
    9.5681  -27.2360   -9.7668 C   0  0  0  0  0  0  0  0  0  0  0  0
    5.8414  -28.4401   -7.9668 C   0  0  1  0  0  0  0  0  0  0  0  0
    8.2990  -26.4912  -10.1251 C   0  0  1  0  0  0  0  0  0  0  0  0
   10.9566  -28.5270  -13.6198 C   0  0  0  0  0  0  0  0  0  0  0  0
   12.6788  -25.0385  -13.3866 C   0  0  0  0  0  0  0  0  0  0  0  0
    1.5122  -29.6337  -10.1090 C   0  0  0  0  0  0  0  0  0  0  0  0
   11.8003  -27.3206  -14.0135 C   0  0  0  0  0  0  0  0  0  0  0  0
   11.9539  -26.2938  -12.8596 C   0  0  1  0  0  0  0  0  0  0  0  0
    2.5426  -27.5446   -9.4880 N   0  0  0  0  0  0  0  0  0  0  0  0
    2.6116  -28.8888   -9.5433 N   0  0  0  0  0  0  0  0  0  0  0  0
   10.6389  -26.4012  -10.2761 N   0  0  0  0  0  0  0  0  0  0  0  0
    6.8374  -28.0171   -8.9221 N   0  0  0  0  0  0  0  0  0  0  0  0
   10.8026  -24.1132  -10.9273 O   0  0  0  0  0  0  0  0  0  0  0  0
    6.8299  -25.7424   -8.4223 O   0  0  0  0  0  0  0  0  0  0  0  0
   15.6052  -28.2056  -10.7268 H   0  0  0  0  0  0  0  0  0  0  0  0
   14.4438  -28.2791   -8.5356 H   0  0  0  0  0  0  0  0  0  0  0  0
   14.4528  -27.2906  -12.7125 H   0  0  0  0  0  0  0  0  0  0  0  0
   12.1311  -27.4371   -8.3281 H   0  0  0  0  0  0  0  0  0  0  0  0
    3.9008  -26.1488   -8.7403 H   0  0  0  0  0  0  0  0  0  0  0  0
    3.5458  -31.2750   -8.0938 H   0  0  0  0  0  0  0  0  0  0  0  0
    3.9153  -31.3689   -9.8228 H   0  0  0  0  0  0  0  0  0  0  0  0
    8.6008  -24.5278   -9.2027 H   0  0  0  0  0  0  0  0  0  0  0  0
    8.1988  -24.4850  -10.9465 H   0  0  0  0  0  0  0  0  0  0  0  0
    5.8463  -31.9506   -8.2047 H   0  0  0  0  0  0  0  0  0  0  0  0
    6.2214  -30.8045   -9.4856 H   0  0  0  0  0  0  0  0  0  0  0  0
    5.5385  -30.0851   -6.5883 H   0  0  0  0  0  0  0  0  0  0  0  0
    7.1523  -30.0477   -7.2839 H   0  0  0  0  0  0  0  0  0  0  0  0
    9.6911  -27.3885   -8.6897 H   0  0  0  0  0  0  0  0  0  0  0  0
    9.6235  -28.2011  -10.2826 H   0  0  0  0  0  0  0  0  0  0  0  0
    5.9302  -27.7754   -7.1023 H   0  0  0  0  0  0  0  0  0  0  0  0
    7.8817  -26.8184  -11.0679 H   0  0  0  0  0  0  0  0  0  0  0  0
    9.9703  -28.1986  -13.2762 H   0  0  0  0  0  0  0  0  0  0  0  0
   10.8051  -29.2056  -14.4646 H   0  0  0  0  0  0  0  0  0  0  0  0
   11.4286  -29.0870  -12.8062 H   0  0  0  0  0  0  0  0  0  0  0  0
   13.7124  -25.2609  -13.6732 H   0  0  0  0  0  0  0  0  0  0  0  0
   12.1726  -24.6226  -14.2645 H   0  0  0  0  0  0  0  0  0  0  0  0
   12.7054  -24.2592  -12.6166 H   0  0  0  0  0  0  0  0  0  0  0  0
    0.8082  -29.8598   -9.3038 H   0  0  0  0  0  0  0  0  0  0  0  0
    1.0267  -29.0342  -10.8841 H   0  0  0  0  0  0  0  0  0  0  0  0
    1.8928  -30.5564  -10.5558 H   0  0  0  0  0  0  0  0  0  0  0  0
   12.7831  -27.6670  -14.3546 H   0  0  0  0  0  0  0  0  0  0  0  0
   11.3228  -26.8408  -14.8772 H   0  0  0  0  0  0  0  0  0  0  0  0
   10.9302  -25.9611  -12.6018 H   0  0  0  0  0  0  0  0  0  0  0  0
    7.2624  -28.7205   -9.5208 H   0  0  0  0  0  0  0  0  0  0  0  0
  1  2  1  0  0  0  0
  1  3  2  0  0  0  0
  2  4  2  0  0  0  0
  3  7  1  0  0  0  0
  4  8  1  0  0  0  0
  5  6  1  0  0  0  0
  5 24  2  0  0  0  0
  6  9  2  0  0  0  0
  6 17  1  0  0  0  0
  7  8  2  0  0  0  0
  7 23  1  0  0  0  0
  8 26  1  0  0  0  0
  9 12  1  0  0  0  0
  9 25  1  0  0  0  0
 10 13  1  0  0  0  0
 10 26  1  0  0  0  0
 10 28  2  0  0  0  0
 11 18  1  0  0  0  0
 11 27  1  0  0  0  0
 11 29  2  0  0  0  0
 12 14  1  0  0  0  0
 13 18  1  0  0  0  0
 14 15  1  0  0  0  0
 15 17  1  0  0  0  0
 16 18  1  0  0  0  0
 16 26  1  0  0  0  0
 17 27  1  0  0  0  0
 19 22  1  0  0  0  0
 20 23  1  0  0  0  0
 21 25  1  0  0  0  0
 22 23  1  0  0  0  0
 24 25  1  0  0  0  0
  1 30  1  0  0  0  0
  2 31  1  0  0  0  0
  3 32  1  0  0  0  0
  4 33  1  0  0  0  0
  5 34  1  0  0  0  0
 12 35  1  0  0  0  0
 12 36  1  0  0  0  0
 13 37  1  0  0  0  0
 13 38  1  0  0  0  0
 14 39  1  0  0  0  0
 14 40  1  0  0  0  0
 15 41  1  0  0  0  0
 15 42  1  0  0  0  0
 16 43  1  0  0  0  0
 16 44  1  0  0  0  0
 17 45  1  0  0  0  0
 18 46  1  0  0  0  0
 19 47  1  0  0  0  0
 19 48  1  0  0  0  0
 19 49  1  0  0  0  0
 20 50  1  0  0  0  0
 20 51  1  0  0  0  0
 20 52  1  0  0  0  0
 21 53  1  0  0  0  0
 21 54  1  0  0  0  0
 21 55  1  0  0  0  0
 22 56  1  0  0  0  0
 22 57  1  0  0  0  0
 23 58  1  0  0  0  0
 27 59  1  0  0  0  0
M  END
> <Hybrid2>
-6.704989433288574

> <Hybrid2>
-6.612074

$$$$
C26195567
  -OEChem-02152218483D

 52 55  0     1  0  0  0  0  0999 V2000
    1.7289  -31.3078   -7.7517 C   0  0  0  0  0  0  0  0  0  0  0  0
    1.1735  -30.3897   -8.6429 C   0  0  0  0  0  0  0  0  0  0  0  0
    3.0428  -31.1461   -7.3122 C   0  0  0  0  0  0  0  0  0  0  0  0
    1.9321  -29.3099   -9.0947 C   0  0  0  0  0  0  0  0  0  0  0  0
    3.8014  -30.0662   -7.7640 C   0  0  0  0  0  0  0  0  0  0  0  0
    3.2461  -29.1481   -8.6552 C   0  0  0  0  0  0  0  0  0  0  0  0
   12.6323  -27.5719   -9.9305 C   0  0  0  0  0  0  0  0  0  0  0  0
    9.9663  -25.7190  -10.4440 C   0  0  0  0  0  0  0  0  0  0  0  0
    5.3283  -27.7435   -8.7812 C   0  0  0  0  0  0  0  0  0  0  0  0
   14.1070  -27.7235  -10.2350 C   0  0  0  0  0  0  0  0  0  0  0  0
   14.1671  -27.4805  -11.7499 C   0  0  0  0  0  0  0  0  0  0  0  0
    6.7777  -25.7338   -8.5925 C   0  0  0  0  0  0  0  0  0  0  0  0
    6.3592  -26.8292  -10.8633 C   0  0  0  0  0  0  0  0  0  0  0  0
    7.8380  -25.0069   -9.4113 C   0  0  0  0  0  0  0  0  0  0  0  0
    7.8658  -27.0729  -10.8167 C   0  0  0  0  0  0  0  0  0  0  0  0
   10.5598  -26.2489  -12.7702 C   0  0  0  0  0  0  0  0  0  0  0  0
   10.6810  -26.7192  -11.3195 C   0  0  1  0  0  0  0  0  0  0  0  0
    5.7843  -26.4947   -9.4810 C   0  0  0  0  0  0  0  0  0  0  0  0
   13.0611  -26.4571  -11.9759 C   0  0  2  0  0  0  0  0  0  0  0  0
   13.5450  -25.0184  -11.7794 C   0  0  0  0  0  0  0  0  0  0  0  0
   12.0897  -26.8311  -10.9749 N   0  0  0  0  0  0  0  0  0  0  0  0
    8.6020  -25.9386  -10.2438 N   0  0  0  0  0  0  0  0  0  0  0  0
    4.0154  -28.0525   -9.1136 N   0  0  0  0  0  0  0  0  0  0  0  0
   12.0625  -28.0357   -8.9553 O   0  0  0  0  0  0  0  0  0  0  0  0
   10.5946  -24.7746   -9.9602 O   0  0  0  0  0  0  0  0  0  0  0  0
    6.0827  -28.3544   -8.0312 O   0  0  0  0  0  0  0  0  0  0  0  0
   12.1667  -26.6062  -13.5468 S   0  0  0  0  0  0  0  0  0  0  0  0
    1.1382  -32.1484   -7.3991 H   0  0  0  0  0  0  0  0  0  0  0  0
    0.1503  -30.5148   -8.9846 H   0  0  0  0  0  0  0  0  0  0  0  0
    3.4746  -31.8606   -6.6174 H   0  0  0  0  0  0  0  0  0  0  0  0
    1.4886  -28.6006   -9.7891 H   0  0  0  0  0  0  0  0  0  0  0  0
    4.8244  -29.9503   -7.4146 H   0  0  0  0  0  0  0  0  0  0  0  0
   14.6704  -26.9715   -9.6744 H   0  0  0  0  0  0  0  0  0  0  0  0
   14.4580  -28.7255   -9.9758 H   0  0  0  0  0  0  0  0  0  0  0  0
   15.1579  -27.1331  -12.0605 H   0  0  0  0  0  0  0  0  0  0  0  0
   13.9604  -28.4246  -12.2712 H   0  0  0  0  0  0  0  0  0  0  0  0
    7.2663  -26.4198   -7.8934 H   0  0  0  0  0  0  0  0  0  0  0  0
    6.2270  -25.0006   -7.9930 H   0  0  0  0  0  0  0  0  0  0  0  0
    6.1591  -25.9932  -11.5399 H   0  0  0  0  0  0  0  0  0  0  0  0
    5.8629  -27.7100  -11.2778 H   0  0  0  0  0  0  0  0  0  0  0  0
    7.3613  -24.2355  -10.0296 H   0  0  0  0  0  0  0  0  0  0  0  0
    8.5537  -24.4908   -8.7561 H   0  0  0  0  0  0  0  0  0  0  0  0
    8.0994  -27.9534  -10.1945 H   0  0  0  0  0  0  0  0  0  0  0  0
    8.2213  -27.3189  -11.8274 H   0  0  0  0  0  0  0  0  0  0  0  0
    9.7961  -26.8302  -13.2900 H   0  0  0  0  0  0  0  0  0  0  0  0
   10.3291  -25.1869  -12.8562 H   0  0  0  0  0  0  0  0  0  0  0  0
   10.1562  -27.6701  -11.1817 H   0  0  0  0  0  0  0  0  0  0  0  0
    4.8845  -25.8840   -9.6075 H   0  0  0  0  0  0  0  0  0  0  0  0
   12.7215  -24.3290  -11.9514 H   0  0  0  0  0  0  0  0  0  0  0  0
   14.3466  -24.8032  -12.4821 H   0  0  0  0  0  0  0  0  0  0  0  0
   13.9134  -24.8921  -10.7639 H   0  0  0  0  0  0  0  0  0  0  0  0
    3.5406  -27.4271   -9.7614 H   0  0  0  0  0  0  0  0  0  0  0  0
  1  2  1  0  0  0  0
  1  3  2  0  0  0  0
  2  4  2  0  0  0  0
  3  5  1  0  0  0  0
  4  6  1  0  0  0  0
  5  6  2  0  0  0  0
  6 23  1  0  0  0  0
  7 10  1  0  0  0  0
  7 21  1  0  0  0  0
  7 24  2  0  0  0  0
  8 17  1  0  0  0  0
  8 22  1  0  0  0  0
  8 25  2  0  0  0  0
  9 18  1  0  0  0  0
  9 23  1  0  0  0  0
  9 26  2  0  0  0  0
 10 11  1  0  0  0  0
 11 19  1  0  0  0  0
 12 14  1  0  0  0  0
 12 18  1  0  0  0  0
 13 15  1  0  0  0  0
 13 18  1  0  0  0  0
 14 22  1  0  0  0  0
 15 22  1  0  0  0  0
 16 17  1  0  0  0  0
 16 27  1  0  0  0  0
 17 21  1  0  0  0  0
 19 20  1  0  0  0  0
 19 21  1  0  0  0  0
 19 27  1  0  0  0  0
  1 28  1  0  0  0  0
  2 29  1  0  0  0  0
  3 30  1  0  0  0  0
  4 31  1  0  0  0  0
  5 32  1  0  0  0  0
 10 33  1  0  0  0  0
 10 34  1  0  0  0  0
 11 35  1  0  0  0  0
 11 36  1  0  0  0  0
 12 37  1  0  0  0  0
 12 38  1  0  0  0  0
 13 39  1  0  0  0  0
 13 40  1  0  0  0  0
 14 41  1  0  0  0  0
 14 42  1  0  0  0  0
 15 43  1  0  0  0  0
 15 44  1  0  0  0  0
 16 45  1  0  0  0  0
 16 46  1  0  0  0  0
 17 47  1  0  0  0  0
 18 48  1  0  0  0  0
 20 49  1  0  0  0  0
 20 50  1  0  0  0  0
 20 51  1  0  0  0  0
 23 52  1  0  0  0  0
M  END
> <Hybrid2>
-2.6877050399780273

> <Hybrid2>
-2.687705

$$$$
C26195567
  -OEChem-02152218483D

 52 55  0     1  0  0  0  0  0999 V2000
    1.5882  -30.7544   -8.2782 C   0  0  0  0  0  0  0  0  0  0  0  0
    1.3619  -29.9710   -9.4098 C   0  0  0  0  0  0  0  0  0  0  0  0
    2.7858  -30.6323   -7.5735 C   0  0  0  0  0  0  0  0  0  0  0  0
    2.3331  -29.0655   -9.8368 C   0  0  0  0  0  0  0  0  0  0  0  0
    3.7571  -29.7268   -8.0005 C   0  0  0  0  0  0  0  0  0  0  0  0
    3.5307  -28.9433   -9.1321 C   0  0  0  0  0  0  0  0  0  0  0  0
   13.4844  -28.4698  -10.1129 C   0  0  0  0  0  0  0  0  0  0  0  0
   10.7018  -26.7635   -9.7318 C   0  0  0  0  0  0  0  0  0  0  0  0
    5.7545  -27.7780   -8.9871 C   0  0  0  0  0  0  0  0  0  0  0  0
   14.9325  -28.3882  -10.5449 C   0  0  0  0  0  0  0  0  0  0  0  0
   14.8497  -27.6028  -11.8617 C   0  0  0  0  0  0  0  0  0  0  0  0
    7.3784  -25.9025   -8.7959 C   0  0  0  0  0  0  0  0  0  0  0  0
    7.3251  -27.3479  -10.8866 C   0  0  0  0  0  0  0  0  0  0  0  0
    8.6423  -26.6452   -8.3661 C   0  0  0  0  0  0  0  0  0  0  0  0
    8.6027  -28.0334  -10.4003 C   0  0  0  0  0  0  0  0  0  0  0  0
   11.1146  -26.3568  -12.1200 C   0  0  0  0  0  0  0  0  0  0  0  0
   11.3827  -27.3158  -10.9587 C   0  0  1  0  0  0  0  0  0  0  0  0
    6.5076  -26.7269   -9.7493 C   0  0  0  0  0  0  0  0  0  0  0  0
   13.6822  -26.6537  -11.6205 C   0  0  2  0  0  0  0  0  0  0  0  0
   14.1145  -25.3555  -10.9348 C   0  0  0  0  0  0  0  0  0  0  0  0
   12.8196  -27.4404  -10.7706 N   0  0  0  0  0  0  0  0  0  0  0  0
    9.3744  -27.1400   -9.5312 N   0  0  0  0  0  0  0  0  0  0  0  0
    4.5158  -28.0245   -9.5654 N   0  0  0  0  0  0  0  0  0  0  0  0
   13.0233  -29.3002   -9.3457 O   0  0  0  0  0  0  0  0  0  0  0  0
   11.3318  -26.0184   -8.9768 O   0  0  0  0  0  0  0  0  0  0  0  0
    6.2438  -28.3046   -7.9930 O   0  0  0  0  0  0  0  0  0  0  0  0
   12.6628  -26.2829  -13.0741 S   0  0  0  0  0  0  0  0  0  0  0  0
    0.8319  -31.4591   -7.9449 H   0  0  0  0  0  0  0  0  0  0  0  0
    0.4292  -30.0652   -9.9582 H   0  0  0  0  0  0  0  0  0  0  0  0
    2.9614  -31.2418   -6.6917 H   0  0  0  0  0  0  0  0  0  0  0  0
    2.1455  -28.4601  -10.7201 H   0  0  0  0  0  0  0  0  0  0  0  0
    4.6866  -29.6401   -7.4433 H   0  0  0  0  0  0  0  0  0  0  0  0
   15.5071  -27.8542   -9.7821 H   0  0  0  0  0  0  0  0  0  0  0  0
   15.3505  -29.3861  -10.6994 H   0  0  0  0  0  0  0  0  0  0  0  0
   15.7928  -27.0925  -12.0832 H   0  0  0  0  0  0  0  0  0  0  0  0
   14.6423  -28.3025  -12.6821 H   0  0  0  0  0  0  0  0  0  0  0  0
    6.8067  -25.6187   -7.9041 H   0  0  0  0  0  0  0  0  0  0  0  0
    7.6699  -24.9701   -9.2963 H   0  0  0  0  0  0  0  0  0  0  0  0
    7.6011  -26.5572  -11.5961 H   0  0  0  0  0  0  0  0  0  0  0  0
    6.7167  -28.0730  -11.4406 H   0  0  0  0  0  0  0  0  0  0  0  0
    9.2704  -25.9816   -7.7632 H   0  0  0  0  0  0  0  0  0  0  0  0
    8.3926  -27.5106   -7.7413 H   0  0  0  0  0  0  0  0  0  0  0  0
    8.3645  -28.9286   -9.8145 H   0  0  0  0  0  0  0  0  0  0  0  0
    9.1820  -28.3663  -11.2634 H   0  0  0  0  0  0  0  0  0  0  0  0
   10.3363  -26.7624  -12.7689 H   0  0  0  0  0  0  0  0  0  0  0  0
   10.8285  -25.3577  -11.7905 H   0  0  0  0  0  0  0  0  0  0  0  0
   10.9163  -28.2875  -11.1509 H   0  0  0  0  0  0  0  0  0  0  0  0
    5.7424  -26.0699  -10.1814 H   0  0  0  0  0  0  0  0  0  0  0  0
   13.2484  -24.7148  -10.7857 H   0  0  0  0  0  0  0  0  0  0  0  0
   14.8413  -24.8381  -11.5568 H   0  0  0  0  0  0  0  0  0  0  0  0
   14.5635  -25.5832   -9.9707 H   0  0  0  0  0  0  0  0  0  0  0  0
    4.2770  -27.4898  -10.3980 H   0  0  0  0  0  0  0  0  0  0  0  0
  1  2  1  0  0  0  0
  1  3  2  0  0  0  0
  2  4  2  0  0  0  0
  3  5  1  0  0  0  0
  4  6  1  0  0  0  0
  5  6  2  0  0  0  0
  6 23  1  0  0  0  0
  7 10  1  0  0  0  0
  7 21  1  0  0  0  0
  7 24  2  0  0  0  0
  8 17  1  0  0  0  0
  8 22  1  0  0  0  0
  8 25  2  0  0  0  0
  9 18  1  0  0  0  0
  9 23  1  0  0  0  0
  9 26  2  0  0  0  0
 10 11  1  0  0  0  0
 11 19  1  0  0  0  0
 12 14  1  0  0  0  0
 12 18  1  0  0  0  0
 13 15  1  0  0  0  0
 13 18  1  0  0  0  0
 14 22  1  0  0  0  0
 15 22  1  0  0  0  0
 16 17  1  0  0  0  0
 16 27  1  0  0  0  0
 17 21  1  0  0  0  0
 19 20  1  0  0  0  0
 19 21  1  0  0  0  0
 19 27  1  0  0  0  0
  1 28  1  0  0  0  0
  2 29  1  0  0  0  0
  3 30  1  0  0  0  0
  4 31  1  0  0  0  0
  5 32  1  0  0  0  0
 10 33  1  0  0  0  0
 10 34  1  0  0  0  0
 11 35  1  0  0  0  0
 11 36  1  0  0  0  0
 12 37  1  0  0  0  0
 12 38  1  0  0  0  0
 13 39  1  0  0  0  0
 13 40  1  0  0  0  0
 14 41  1  0  0  0  0
 14 42  1  0  0  0  0
 15 43  1  0  0  0  0
 15 44  1  0  0  0  0
 16 45  1  0  0  0  0
 16 46  1  0  0  0  0
 17 47  1  0  0  0  0
 18 48  1  0  0  0  0
 20 49  1  0  0  0  0
 20 50  1  0  0  0  0
 20 51  1  0  0  0  0
 23 52  1  0  0  0  0
M  END
> <Hybrid2>
-2.6877050399780273

> <Hybrid2>
-2.481766

$$$$
C32906405
  -OEChem-02152218483D

 43 45  0     1  0  0  0  0  0999 V2000
   12.5117  -26.9399  -11.7182 C   0  0  0  0  0  0  0  0  0  0  0  0
   12.6717  -27.3005   -9.3346 C   0  0  0  0  0  0  0  0  0  0  0  0
   13.8376  -27.3461  -11.8686 C   0  0  0  0  0  0  0  0  0  0  0  0
   13.9976  -27.7067   -9.4850 C   0  0  0  0  0  0  0  0  0  0  0  0
   11.9288  -26.9171  -10.4511 C   0  0  0  0  0  0  0  0  0  0  0  0
    5.5646  -28.6589   -8.9109 C   0  0  0  0  0  0  0  0  0  0  0  0
   14.5805  -27.7296  -10.7521 C   0  0  0  0  0  0  0  0  0  0  0  0
    4.4254  -28.7928   -8.0948 C   0  0  0  0  0  0  0  0  0  0  0  0
    5.6055  -29.8240   -9.6371 C   0  0  0  0  0  0  0  0  0  0  0  0
    9.7010  -26.0897  -11.3222 C   0  0  0  0  0  0  0  0  0  0  0  0
    7.8304  -27.6444   -9.3124 C   0  0  0  0  0  0  0  0  0  0  0  0
    8.4015  -25.6644  -10.6742 C   0  0  0  0  0  0  0  0  0  0  0  0
    9.9436  -26.3896   -8.9922 C   0  0  0  0  0  0  0  0  0  0  0  0
    8.4637  -26.2621   -9.2840 C   0  0  2  0  0  0  0  0  0  0  0  0
    3.9031  -27.8324   -7.1063 C   0  0  0  0  0  0  0  0  0  0  0  0
    6.5522  -30.3015  -10.6639 C   0  0  0  0  0  0  0  0  0  0  0  0
    4.1391  -31.8640   -9.7005 C   0  0  0  0  0  0  0  0  0  0  0  0
    3.7885  -29.9514   -8.2845 N   0  0  0  0  0  0  0  0  0  0  0  0
    4.5300  -30.5562   -9.2281 N   0  0  0  0  0  0  0  0  0  0  0  0
   10.5716  -26.5017  -10.2972 N   0  0  0  0  0  0  0  0  0  0  0  0
    6.4811  -27.5835   -8.9882 N   0  0  0  0  0  0  0  0  0  0  0  0
    9.8891  -26.0038  -12.5273 O   0  0  0  0  0  0  0  0  0  0  0  0
    8.4959  -28.6345   -9.5985 O   0  0  0  0  0  0  0  0  0  0  0  0
   16.3769  -28.2800  -10.9562 Br  0  0  0  0  0  0  0  0  0  0  0  0
   11.9420  -26.6430  -12.5948 H   0  0  0  0  0  0  0  0  0  0  0  0
   12.2273  -27.2864   -8.3428 H   0  0  0  0  0  0  0  0  0  0  0  0
   14.2772  -27.3586  -12.8625 H   0  0  0  0  0  0  0  0  0  0  0  0
   14.5632  -28.0023   -8.6052 H   0  0  0  0  0  0  0  0  0  0  0  0
    8.3863  -24.5700  -10.6353 H   0  0  0  0  0  0  0  0  0  0  0  0
    7.5534  -26.0244  -11.2639 H   0  0  0  0  0  0  0  0  0  0  0  0
   10.3314  -25.4833   -8.5133 H   0  0  0  0  0  0  0  0  0  0  0  0
   10.1942  -27.2624   -8.3801 H   0  0  0  0  0  0  0  0  0  0  0  0
    7.9362  -25.6833   -8.5550 H   0  0  0  0  0  0  0  0  0  0  0  0
    3.1866  -27.1328   -7.5688 H   0  0  0  0  0  0  0  0  0  0  0  0
    3.3854  -28.3355   -6.2707 H   0  0  0  0  0  0  0  0  0  0  0  0
    4.7068  -27.2307   -6.6461 H   0  0  0  0  0  0  0  0  0  0  0  0
    7.3815  -30.8666  -10.2077 H   0  0  0  0  0  0  0  0  0  0  0  0
    6.0642  -30.9602  -11.4024 H   0  0  0  0  0  0  0  0  0  0  0  0
    6.9911  -29.4695  -11.2410 H   0  0  0  0  0  0  0  0  0  0  0  0
    4.6298  -32.6107   -9.0705 H   0  0  0  0  0  0  0  0  0  0  0  0
    3.0521  -31.9645   -9.6363 H   0  0  0  0  0  0  0  0  0  0  0  0
    4.4484  -31.9790  -10.7431 H   0  0  0  0  0  0  0  0  0  0  0  0
    6.0940  -26.6652   -8.7807 H   0  0  0  0  0  0  0  0  0  0  0  0
  1  3  2  0  0  0  0
  1  5  1  0  0  0  0
  2  4  1  0  0  0  0
  2  5  2  0  0  0  0
  3  7  1  0  0  0  0
  4  7  2  0  0  0  0
  5 20  1  0  0  0  0
  6  8  1  0  0  0  0
  6  9  2  0  0  0  0
  6 21  1  0  0  0  0
  7 24  1  0  0  0  0
  8 15  1  0  0  0  0
  8 18  2  0  0  0  0
  9 16  1  0  0  0  0
  9 19  1  0  0  0  0
 10 12  1  0  0  0  0
 10 20  1  0  0  0  0
 10 22  2  0  0  0  0
 11 14  1  0  0  0  0
 11 21  1  0  0  0  0
 11 23  2  0  0  0  0
 12 14  1  0  0  0  0
 13 14  1  0  0  0  0
 13 20  1  0  0  0  0
 17 19  1  0  0  0  0
 18 19  1  0  0  0  0
  1 25  1  0  0  0  0
  2 26  1  0  0  0  0
  3 27  1  0  0  0  0
  4 28  1  0  0  0  0
 12 29  1  0  0  0  0
 12 30  1  0  0  0  0
 13 31  1  0  0  0  0
 13 32  1  0  0  0  0
 14 33  1  0  0  0  0
 15 34  1  0  0  0  0
 15 35  1  0  0  0  0
 15 36  1  0  0  0  0
 16 37  1  0  0  0  0
 16 38  1  0  0  0  0
 16 39  1  0  0  0  0
 17 40  1  0  0  0  0
 17 41  1  0  0  0  0
 17 42  1  0  0  0  0
 21 43  1  0  0  0  0
M  END
> <Hybrid2>
-3.6301918029785156

> <Hybrid2>
-3.630192

$$$$
C32906405
  -OEChem-02152218483D

 43 45  0     1  0  0  0  0  0999 V2000
    4.9218  -27.3916   -8.7512 C   0  0  0  0  0  0  0  0  0  0  0  0
    6.6408  -29.0727   -8.9872 C   0  0  0  0  0  0  0  0  0  0  0  0
    4.0726  -28.3400   -8.1810 C   0  0  0  0  0  0  0  0  0  0  0  0
    5.7916  -30.0211   -8.4169 C   0  0  0  0  0  0  0  0  0  0  0  0
    6.2059  -27.7580   -9.1543 C   0  0  0  0  0  0  0  0  0  0  0  0
   12.5356  -26.8370  -11.1577 C   0  0  0  0  0  0  0  0  0  0  0  0
    4.5075  -29.6547   -8.0139 C   0  0  0  0  0  0  0  0  0  0  0  0
   13.4958  -25.8174  -11.3002 C   0  0  0  0  0  0  0  0  0  0  0  0
   13.2739  -27.9811  -10.9776 C   0  0  0  0  0  0  0  0  0  0  0  0
    6.7825  -25.4319   -9.9694 C   0  0  0  0  0  0  0  0  0  0  0  0
   10.3427  -25.6569  -10.8072 C   0  0  0  0  0  0  0  0  0  0  0  0
    8.0326  -24.7844  -10.5173 C   0  0  0  0  0  0  0  0  0  0  0  0
    8.4424  -27.1005  -10.1052 C   0  0  0  0  0  0  0  0  0  0  0  0
    8.8712  -25.9531  -10.9959 C   0  0  2  0  0  0  0  0  0  0  0  0
   13.2616  -24.3794  -11.5229 C   0  0  0  0  0  0  0  0  0  0  0  0
   12.8652  -29.3845  -10.7729 C   0  0  0  0  0  0  0  0  0  0  0  0
   15.7434  -28.4374  -10.8807 C   0  0  0  0  0  0  0  0  0  0  0  0
   14.7484  -26.2735  -11.2175 N   0  0  0  0  0  0  0  0  0  0  0  0
   14.5805  -27.5923  -11.0211 N   0  0  0  0  0  0  0  0  0  0  0  0
    7.0752  -26.7872   -9.7375 N   0  0  0  0  0  0  0  0  0  0  0  0
   11.1243  -26.7395  -11.1901 N   0  0  0  0  0  0  0  0  0  0  0  0
    5.7603  -24.7981   -9.7489 O   0  0  0  0  0  0  0  0  0  0  0  0
   10.7141  -24.5727  -10.3697 O   0  0  0  0  0  0  0  0  0  0  0  0
    3.3568  -30.9395   -7.2413 Br  0  0  0  0  0  0  0  0  0  0  0  0
    4.5727  -26.3700   -8.8770 H   0  0  0  0  0  0  0  0  0  0  0  0
    7.6394  -29.3690   -9.2977 H   0  0  0  0  0  0  0  0  0  0  0  0
    3.0751  -28.0387   -7.8720 H   0  0  0  0  0  0  0  0  0  0  0  0
    6.1453  -31.0414   -8.2936 H   0  0  0  0  0  0  0  0  0  0  0  0
    7.7419  -24.1384  -11.3511 H   0  0  0  0  0  0  0  0  0  0  0  0
    8.5205  -24.1910   -9.7402 H   0  0  0  0  0  0  0  0  0  0  0  0
    8.4313  -28.0459  -10.6582 H   0  0  0  0  0  0  0  0  0  0  0  0
    9.0580  -27.2079   -9.2067 H   0  0  0  0  0  0  0  0  0  0  0  0
    8.7176  -26.1651  -12.0449 H   0  0  0  0  0  0  0  0  0  0  0  0
   13.1842  -23.8344  -10.5670 H   0  0  0  0  0  0  0  0  0  0  0  0
   14.0727  -23.9116  -12.1084 H   0  0  0  0  0  0  0  0  0  0  0  0
   12.3324  -24.1921  -12.0896 H   0  0  0  0  0  0  0  0  0  0  0  0
   12.7677  -29.9143  -11.7347 H   0  0  0  0  0  0  0  0  0  0  0  0
   13.5910  -29.9412  -10.1558 H   0  0  0  0  0  0  0  0  0  0  0  0
   11.8973  -29.4613  -10.2484 H   0  0  0  0  0  0  0  0  0  0  0  0
   16.0268  -28.7893  -11.8762 H   0  0  0  0  0  0  0  0  0  0  0  0
   16.5587  -27.8633  -10.4318 H   0  0  0  0  0  0  0  0  0  0  0  0
   15.4999  -29.2822  -10.2304 H   0  0  0  0  0  0  0  0  0  0  0  0
   10.6382  -27.5641  -11.5365 H   0  0  0  0  0  0  0  0  0  0  0  0
  1  3  2  0  0  0  0
  1  5  1  0  0  0  0
  2  4  1  0  0  0  0
  2  5  2  0  0  0  0
  3  7  1  0  0  0  0
  4  7  2  0  0  0  0
  5 20  1  0  0  0  0
  6  8  1  0  0  0  0
  6  9  2  0  0  0  0
  6 21  1  0  0  0  0
  7 24  1  0  0  0  0
  8 15  1  0  0  0  0
  8 18  2  0  0  0  0
  9 16  1  0  0  0  0
  9 19  1  0  0  0  0
 10 12  1  0  0  0  0
 10 20  1  0  0  0  0
 10 22  2  0  0  0  0
 11 14  1  0  0  0  0
 11 21  1  0  0  0  0
 11 23  2  0  0  0  0
 12 14  1  0  0  0  0
 13 14  1  0  0  0  0
 13 20  1  0  0  0  0
 17 19  1  0  0  0  0
 18 19  1  0  0  0  0
  1 25  1  0  0  0  0
  2 26  1  0  0  0  0
  3 27  1  0  0  0  0
  4 28  1  0  0  0  0
 12 29  1  0  0  0  0
 12 30  1  0  0  0  0
 13 31  1  0  0  0  0
 13 32  1  0  0  0  0
 14 33  1  0  0  0  0
 15 34  1  0  0  0  0
 15 35  1  0  0  0  0
 15 36  1  0  0  0  0
 16 37  1  0  0  0  0
 16 38  1  0  0  0  0
 16 39  1  0  0  0  0
 17 40  1  0  0  0  0
 17 41  1  0  0  0  0
 17 42  1  0  0  0  0
 21 43  1  0  0  0  0
M  END
> <Hybrid2>
-3.6301918029785156

> <Hybrid2>
-3.419090

$$$$
C33188272
  -OEChem-02152218483D

 47 50  0     0  0  0  0  0  0999 V2000
   14.1370  -27.0773  -10.1423 C   0  0  0  0  0  0  0  0  0  0  0  0
   14.4435  -27.8444  -11.2663 C   0  0  0  0  0  0  0  0  0  0  0  0
   13.1434  -26.1010  -10.2140 C   0  0  0  0  0  0  0  0  0  0  0  0
   13.7563  -27.6351  -12.4620 C   0  0  0  0  0  0  0  0  0  0  0  0
    5.1818  -28.0905   -9.4622 C   0  0  0  0  0  0  0  0  0  0  0  0
   12.4562  -25.8917  -11.4097 C   0  0  0  0  0  0  0  0  0  0  0  0
   12.7627  -26.6587  -12.5337 C   0  0  0  0  0  0  0  0  0  0  0  0
    6.0758  -27.2017   -8.8356 C   0  0  0  0  0  0  0  0  0  0  0  0
    5.2023  -29.2129   -8.6708 C   0  0  0  0  0  0  0  0  0  0  0  0
   11.4224  -24.8637  -11.4572 C   0  0  0  0  0  0  0  0  0  0  0  0
    6.4315  -25.8537   -9.2634 C   0  0  0  0  0  0  0  0  0  0  0  0
    2.9058  -30.4348   -8.9950 C   0  0  0  0  0  0  0  0  0  0  0  0
    3.5223  -31.0061   -7.7564 C   0  0  0  0  0  0  0  0  0  0  0  0
    9.6863  -26.6106  -10.7545 C   0  0  0  0  0  0  0  0  0  0  0  0
    9.0246  -24.2646  -11.1905 C   0  0  0  0  0  0  0  0  0  0  0  0
    8.8774  -26.5825   -9.4595 C   0  0  0  0  0  0  0  0  0  0  0  0
    8.2238  -24.2499   -9.8922 C   0  0  0  0  0  0  0  0  0  0  0  0
    4.4177  -30.5022   -8.8742 C   0  0  0  0  0  0  0  0  0  0  0  0
   12.0431  -26.4552  -13.8267 C   0  0  0  0  0  0  0  0  0  0  0  0
    6.6242  -27.7152   -7.7313 N   0  0  0  0  0  0  0  0  0  0  0  0
    6.0732  -28.9387   -7.6576 N   0  0  0  0  0  0  0  0  0  0  0  0
   10.1085  -25.2515  -11.1347 N   0  0  0  0  0  0  0  0  0  0  0  0
    7.7846  -25.6047   -9.5522 N   0  0  0  0  0  0  0  0  0  0  0  0
   11.7133  -23.7073  -11.7684 O   0  0  0  0  0  0  0  0  0  0  0  0
    5.5630  -24.9852   -9.3623 O   0  0  0  0  0  0  0  0  0  0  0  0
   12.4659  -27.2874  -14.8228 F   0  0  0  0  0  0  0  0  0  0  0  0
   10.6962  -26.6585  -13.7381 F   0  0  0  0  0  0  0  0  0  0  0  0
   12.1932  -25.1906  -14.3152 F   0  0  0  0  0  0  0  0  0  0  0  0
   14.6717  -27.2401   -9.2108 H   0  0  0  0  0  0  0  0  0  0  0  0
   15.2175  -28.6043  -11.2099 H   0  0  0  0  0  0  0  0  0  0  0  0
   12.9147  -25.5091   -9.3314 H   0  0  0  0  0  0  0  0  0  0  0  0
   14.0025  -28.2385  -13.3317 H   0  0  0  0  0  0  0  0  0  0  0  0
    4.6032  -27.9387  -10.3625 H   0  0  0  0  0  0  0  0  0  0  0  0
    2.4194  -31.1191   -9.6794 H   0  0  0  0  0  0  0  0  0  0  0  0
    2.4269  -29.4661   -8.9180 H   0  0  0  0  0  0  0  0  0  0  0  0
    3.4597  -30.4216   -6.8463 H   0  0  0  0  0  0  0  0  0  0  0  0
    3.4526  -32.0764   -7.6043 H   0  0  0  0  0  0  0  0  0  0  0  0
   10.5446  -27.2763  -10.6339 H   0  0  0  0  0  0  0  0  0  0  0  0
    9.0788  -27.0031  -11.5787 H   0  0  0  0  0  0  0  0  0  0  0  0
    8.3807  -24.5337  -12.0363 H   0  0  0  0  0  0  0  0  0  0  0  0
    9.4275  -23.2663  -11.3896 H   0  0  0  0  0  0  0  0  0  0  0  0
    8.5039  -27.5864   -9.2432 H   0  0  0  0  0  0  0  0  0  0  0  0
    9.5128  -26.2833   -8.6172 H   0  0  0  0  0  0  0  0  0  0  0  0
    8.8389  -23.8823   -9.0623 H   0  0  0  0  0  0  0  0  0  0  0  0
    7.3662  -23.5772   -9.9914 H   0  0  0  0  0  0  0  0  0  0  0  0
    4.9145  -31.2651   -9.4738 H   0  0  0  0  0  0  0  0  0  0  0  0
    6.3370  -29.5378   -6.8853 H   0  0  0  0  0  0  0  0  0  0  0  0
  1  2  1  0  0  0  0
  1  3  2  0  0  0  0
  2  4  2  0  0  0  0
  3  6  1  0  0  0  0
  4  7  1  0  0  0  0
  5  8  1  0  0  0  0
  5  9  2  0  0  0  0
  6  7  2  0  0  0  0
  6 10  1  0  0  0  0
  7 19  1  0  0  0  0
  8 11  1  0  0  0  0
  8 20  2  0  0  0  0
  9 18  1  0  0  0  0
  9 21  1  0  0  0  0
 10 22  1  0  0  0  0
 10 24  2  0  0  0  0
 11 23  1  0  0  0  0
 11 25  2  0  0  0  0
 12 13  1  0  0  0  0
 12 18  1  0  0  0  0
 13 18  1  0  0  0  0
 14 16  1  0  0  0  0
 14 22  1  0  0  0  0
 15 17  1  0  0  0  0
 15 22  1  0  0  0  0
 16 23  1  0  0  0  0
 17 23  1  0  0  0  0
 19 26  1  0  0  0  0
 19 27  1  0  0  0  0
 19 28  1  0  0  0  0
 20 21  1  0  0  0  0
  1 29  1  0  0  0  0
  2 30  1  0  0  0  0
  3 31  1  0  0  0  0
  4 32  1  0  0  0  0
  5 33  1  0  0  0  0
 12 34  1  0  0  0  0
 12 35  1  0  0  0  0
 13 36  1  0  0  0  0
 13 37  1  0  0  0  0
 14 38  1  0  0  0  0
 14 39  1  0  0  0  0
 15 40  1  0  0  0  0
 15 41  1  0  0  0  0
 16 42  1  0  0  0  0
 16 43  1  0  0  0  0
 17 44  1  0  0  0  0
 17 45  1  0  0  0  0
 18 46  1  0  0  0  0
 21 47  1  0  0  0  0
M  END
> <Hybrid2>
-5.057681083679199

> <Hybrid2>
-5.057681

$$$$
C33188272
  -OEChem-02152218483D

 47 50  0     0  0  0  0  0  0999 V2000
   14.3062  -27.9763  -11.0538 C   0  0  0  0  0  0  0  0  0  0  0  0
   14.4811  -28.5559  -12.3104 C   0  0  0  0  0  0  0  0  0  0  0  0
   13.4106  -26.9192  -10.8919 C   0  0  0  0  0  0  0  0  0  0  0  0
   13.7606  -28.0784  -13.4051 C   0  0  0  0  0  0  0  0  0  0  0  0
    5.3384  -28.3029   -9.9780 C   0  0  0  0  0  0  0  0  0  0  0  0
   12.6900  -26.4417  -11.9866 C   0  0  0  0  0  0  0  0  0  0  0  0
   12.8650  -27.0213  -13.2432 C   0  0  0  0  0  0  0  0  0  0  0  0
    6.3445  -27.6213   -9.2674 C   0  0  0  0  0  0  0  0  0  0  0  0
    5.2873  -29.5452   -9.3944 C   0  0  0  0  0  0  0  0  0  0  0  0
   11.7607  -25.3347  -11.7895 C   0  0  0  0  0  0  0  0  0  0  0  0
    6.8093  -26.2554   -9.4792 C   0  0  0  0  0  0  0  0  0  0  0  0
    2.8692  -30.4836   -9.7740 C   0  0  0  0  0  0  0  0  0  0  0  0
    3.4861  -31.3173   -8.6948 C   0  0  0  0  0  0  0  0  0  0  0  0
    9.8981  -27.0191  -11.2864 C   0  0  0  0  0  0  0  0  0  0  0  0
    9.4488  -24.5840  -11.2687 C   0  0  0  0  0  0  0  0  0  0  0  0
    9.1596  -27.1500   -9.9561 C   0  0  0  0  0  0  0  0  0  0  0  0
    8.7173  -24.7294   -9.9380 C   0  0  0  0  0  0  0  0  0  0  0  0
    4.3713  -30.7040   -9.7651 C   0  0  0  0  0  0  0  0  0  0  0  0
   12.1069  -26.5294  -14.4326 C   0  0  0  0  0  0  0  0  0  0  0  0
    6.8929  -28.3686   -8.3057 N   0  0  0  0  0  0  0  0  0  0  0  0
    6.2290  -29.5326   -8.4079 N   0  0  0  0  0  0  0  0  0  0  0  0
   10.4324  -25.6566  -11.4538 N   0  0  0  0  0  0  0  0  0  0  0  0
    8.1646  -26.0790   -9.8082 N   0  0  0  0  0  0  0  0  0  0  0  0
   12.1480  -24.1716  -11.9154 O   0  0  0  0  0  0  0  0  0  0  0  0
    6.0261  -25.3102   -9.3707 O   0  0  0  0  0  0  0  0  0  0  0  0
   12.3974  -27.2057  -15.5822 F   0  0  0  0  0  0  0  0  0  0  0  0
   10.7525  -26.6260  -14.2929 F   0  0  0  0  0  0  0  0  0  0  0  0
   12.3562  -25.2163  -14.7050 F   0  0  0  0  0  0  0  0  0  0  0  0
   14.8670  -28.3479  -10.2008 H   0  0  0  0  0  0  0  0  0  0  0  0
   15.1788  -29.3788  -12.4359 H   0  0  0  0  0  0  0  0  0  0  0  0
   13.2840  -26.4753   -9.9077 H   0  0  0  0  0  0  0  0  0  0  0  0
   13.9040  -28.5374  -14.3797 H   0  0  0  0  0  0  0  0  0  0  0  0
    4.7345  -27.9437  -10.7994 H   0  0  0  0  0  0  0  0  0  0  0  0
    2.2855  -30.9903  -10.5329 H   0  0  0  0  0  0  0  0  0  0  0  0
    2.4917  -29.5056   -9.5007 H   0  0  0  0  0  0  0  0  0  0  0  0
    3.5253  -30.9003   -7.6957 H   0  0  0  0  0  0  0  0  0  0  0  0
    3.3195  -32.3873   -8.7248 H   0  0  0  0  0  0  0  0  0  0  0  0
   10.6919  -27.7685  -11.3380 H   0  0  0  0  0  0  0  0  0  0  0  0
    9.2158  -27.2044  -12.1246 H   0  0  0  0  0  0  0  0  0  0  0  0
    8.7414  -24.6413  -12.1046 H   0  0  0  0  0  0  0  0  0  0  0  0
    9.9374  -23.6055  -11.3189 H   0  0  0  0  0  0  0  0  0  0  0  0
    8.7005  -28.1396   -9.8917 H   0  0  0  0  0  0  0  0  0  0  0  0
    9.8614  -27.0619   -9.1179 H   0  0  0  0  0  0  0  0  0  0  0  0
    9.4050  -24.5702   -9.0990 H   0  0  0  0  0  0  0  0  0  0  0  0
    7.9259  -23.9770   -9.8642 H   0  0  0  0  0  0  0  0  0  0  0  0
    4.7613  -31.3892  -10.5179 H   0  0  0  0  0  0  0  0  0  0  0  0
    6.4700  -30.2798   -7.7688 H   0  0  0  0  0  0  0  0  0  0  0  0
  1  2  1  0  0  0  0
  1  3  2  0  0  0  0
  2  4  2  0  0  0  0
  3  6  1  0  0  0  0
  4  7  1  0  0  0  0
  5  8  1  0  0  0  0
  5  9  2  0  0  0  0
  6  7  2  0  0  0  0
  6 10  1  0  0  0  0
  7 19  1  0  0  0  0
  8 11  1  0  0  0  0
  8 20  2  0  0  0  0
  9 18  1  0  0  0  0
  9 21  1  0  0  0  0
 10 22  1  0  0  0  0
 10 24  2  0  0  0  0
 11 23  1  0  0  0  0
 11 25  2  0  0  0  0
 12 13  1  0  0  0  0
 12 18  1  0  0  0  0
 13 18  1  0  0  0  0
 14 16  1  0  0  0  0
 14 22  1  0  0  0  0
 15 17  1  0  0  0  0
 15 22  1  0  0  0  0
 16 23  1  0  0  0  0
 17 23  1  0  0  0  0
 19 26  1  0  0  0  0
 19 27  1  0  0  0  0
 19 28  1  0  0  0  0
 20 21  1  0  0  0  0
  1 29  1  0  0  0  0
  2 30  1  0  0  0  0
  3 31  1  0  0  0  0
  4 32  1  0  0  0  0
  5 33  1  0  0  0  0
 12 34  1  0  0  0  0
 12 35  1  0  0  0  0
 13 36  1  0  0  0  0
 13 37  1  0  0  0  0
 14 38  1  0  0  0  0
 14 39  1  0  0  0  0
 15 40  1  0  0  0  0
 15 41  1  0  0  0  0
 16 42  1  0  0  0  0
 16 43  1  0  0  0  0
 17 44  1  0  0  0  0
 17 45  1  0  0  0  0
 18 46  1  0  0  0  0
 21 47  1  0  0  0  0
M  END
> <Hybrid2>
-5.057681083679199

> <Hybrid2>
-4.751705

$$$$
C35453760
  -OEChem-02152218483D

 53 57  0     1  0  0  0  0  0999 V2000
    2.6134  -30.3843   -9.1827 C   0  0  0  0  0  0  0  0  0  0  0  0
    2.5768  -29.0363   -9.5409 C   0  0  0  0  0  0  0  0  0  0  0  0
   14.1319  -26.1962  -12.1697 C   0  0  0  0  0  0  0  0  0  0  0  0
    3.8238  -30.9822   -8.8309 C   0  0  0  0  0  0  0  0  0  0  0  0
    3.7521  -28.2850   -9.5590 C   0  0  0  0  0  0  0  0  0  0  0  0
   14.1083  -26.4333  -13.5471 C   0  0  0  0  0  0  0  0  0  0  0  0
   11.7578  -27.0374  -13.4612 C   0  0  0  0  0  0  0  0  0  0  0  0
   11.3619  -26.5387   -9.8619 C   0  0  0  0  0  0  0  0  0  0  0  0
   11.7574  -26.8046  -12.0715 C   0  0  0  0  0  0  0  0  0  0  0  0
   10.7691  -26.8937  -11.0516 C   0  0  0  0  0  0  0  0  0  0  0  0
   12.9421  -26.3902  -11.4591 C   0  0  0  0  0  0  0  0  0  0  0  0
    4.9974  -30.2279   -8.8355 C   0  0  0  0  0  0  0  0  0  0  0  0
    4.9649  -28.8859   -9.2207 C   0  0  0  0  0  0  0  0  0  0  0  0
   12.9406  -26.8475  -14.1849 C   0  0  0  0  0  0  0  0  0  0  0  0
    7.8227  -25.7262   -9.9640 C   0  0  0  0  0  0  0  0  0  0  0  0
    6.8677  -25.0133  -12.1327 C   0  0  0  0  0  0  0  0  0  0  0  0
    5.7780  -24.1011  -11.6095 C   0  0  0  0  0  0  0  0  0  0  0  0
    7.8068  -23.3571  -10.7284 C   0  0  0  0  0  0  0  0  0  0  0  0
    7.2020  -29.9394   -8.1670 C   0  0  0  0  0  0  0  0  0  0  0  0
    7.9836  -24.8062  -11.1374 C   0  0  1  0  0  0  0  0  0  0  0  0
    7.2913  -28.8814   -9.2589 C   0  0  2  0  0  0  0  0  0  0  0  0
    9.3346  -27.2995  -11.2302 C   0  0  0  0  0  0  0  0  0  0  0  0
    8.4545  -27.9310   -9.0154 C   0  0  0  0  0  0  0  0  0  0  0  0
   12.6724  -26.2364  -10.1179 N   0  0  0  0  0  0  0  0  0  0  0  0
    8.5149  -26.9576  -10.0557 N   0  0  0  0  0  0  0  0  0  0  0  0
    7.1194  -25.3725   -9.0138 O   0  0  0  0  0  0  0  0  0  0  0  0
    6.1508  -30.8651   -8.4604 O   0  0  0  0  0  0  0  0  0  0  0  0
    6.0872  -28.1022   -9.2771 O   0  0  0  0  0  0  0  0  0  0  0  0
    6.4289  -23.0138  -10.9427 O   0  0  0  0  0  0  0  0  0  0  0  0
   12.9489  -27.0656  -15.5071 F   0  0  0  0  0  0  0  0  0  0  0  0
    1.6975  -30.9681   -9.1741 H   0  0  0  0  0  0  0  0  0  0  0  0
    1.6324  -28.5724   -9.8107 H   0  0  0  0  0  0  0  0  0  0  0  0
   15.0416  -25.8742  -11.6742 H   0  0  0  0  0  0  0  0  0  0  0  0
    3.8415  -32.0304   -8.5452 H   0  0  0  0  0  0  0  0  0  0  0  0
    3.7155  -27.2381   -9.8477 H   0  0  0  0  0  0  0  0  0  0  0  0
   15.0157  -26.2933  -14.1285 H   0  0  0  0  0  0  0  0  0  0  0  0
   10.8560  -27.3599  -13.9739 H   0  0  0  0  0  0  0  0  0  0  0  0
   10.9706  -26.4737   -8.8561 H   0  0  0  0  0  0  0  0  0  0  0  0
    6.5277  -26.0474  -12.2368 H   0  0  0  0  0  0  0  0  0  0  0  0
    7.1966  -24.6600  -13.1171 H   0  0  0  0  0  0  0  0  0  0  0  0
    5.1371  -23.7135  -12.4065 H   0  0  0  0  0  0  0  0  0  0  0  0
    5.1466  -24.6150  -10.8768 H   0  0  0  0  0  0  0  0  0  0  0  0
    8.0672  -23.1543   -9.6853 H   0  0  0  0  0  0  0  0  0  0  0  0
    8.4066  -22.7020  -11.3689 H   0  0  0  0  0  0  0  0  0  0  0  0
    8.1340  -30.5107   -8.1043 H   0  0  0  0  0  0  0  0  0  0  0  0
    7.0084  -29.4963   -7.1817 H   0  0  0  0  0  0  0  0  0  0  0  0
    8.9728  -25.0016  -11.5614 H   0  0  0  0  0  0  0  0  0  0  0  0
    7.4067  -29.3505  -10.2452 H   0  0  0  0  0  0  0  0  0  0  0  0
    8.8982  -26.8011  -12.1027 H   0  0  0  0  0  0  0  0  0  0  0  0
    9.2491  -28.3786  -11.3955 H   0  0  0  0  0  0  0  0  0  0  0  0
    8.2877  -27.4480   -8.0522 H   0  0  0  0  0  0  0  0  0  0  0  0
    9.3674  -28.5270   -8.9991 H   0  0  0  0  0  0  0  0  0  0  0  0
   13.3453  -25.9436   -9.4229 H   0  0  0  0  0  0  0  0  0  0  0  0
  1  2  1  0  0  0  0
  1  4  2  0  0  0  0
  2  5  2  0  0  0  0
  3  6  1  0  0  0  0
  3 11  2  0  0  0  0
  4 12  1  0  0  0  0
  5 13  1  0  0  0  0
  6 14  2  0  0  0  0
  7  9  2  0  0  0  0
  7 14  1  0  0  0  0
  8 10  2  0  0  0  0
  8 24  1  0  0  0  0
  9 10  1  0  0  0  0
  9 11  1  0  0  0  0
 10 22  1  0  0  0  0
 11 24  1  0  0  0  0
 12 13  2  0  0  0  0
 12 27  1  0  0  0  0
 13 28  1  0  0  0  0
 14 30  1  0  0  0  0
 15 20  1  0  0  0  0
 15 25  1  0  0  0  0
 15 26  2  0  0  0  0
 16 17  1  0  0  0  0
 16 20  1  0  0  0  0
 17 29  1  0  0  0  0
 18 20  1  0  0  0  0
 18 29  1  0  0  0  0
 19 21  1  0  0  0  0
 19 27  1  0  0  0  0
 21 23  1  0  0  0  0
 21 28  1  0  0  0  0
 22 25  1  0  0  0  0
 23 25  1  0  0  0  0
  1 31  1  0  0  0  0
  2 32  1  0  0  0  0
  3 33  1  0  0  0  0
  4 34  1  0  0  0  0
  5 35  1  0  0  0  0
  6 36  1  0  0  0  0
  7 37  1  0  0  0  0
  8 38  1  0  0  0  0
 16 39  1  0  0  0  0
 16 40  1  0  0  0  0
 17 41  1  0  0  0  0
 17 42  1  0  0  0  0
 18 43  1  0  0  0  0
 18 44  1  0  0  0  0
 19 45  1  0  0  0  0
 19 46  1  0  0  0  0
 20 47  1  0  0  0  0
 21 48  1  0  0  0  0
 22 49  1  0  0  0  0
 22 50  1  0  0  0  0
 23 51  1  0  0  0  0
 23 52  1  0  0  0  0
 24 53  1  0  0  0  0
M  END
> <Hybrid2>
-6.618236064910889

> <Hybrid2>
-6.618236

$$$$
C35453760
  -OEChem-02152218483D

 53 57  0     1  0  0  0  0  0999 V2000
    1.2517  -29.5503   -9.7440 C   0  0  0  0  0  0  0  0  0  0  0  0
    1.4927  -28.1765   -9.7068 C   0  0  0  0  0  0  0  0  0  0  0  0
   13.5125  -27.0758  -11.3834 C   0  0  0  0  0  0  0  0  0  0  0  0
    2.3036  -30.4501   -9.5708 C   0  0  0  0  0  0  0  0  0  0  0  0
    2.7881  -27.6985   -9.5076 C   0  0  0  0  0  0  0  0  0  0  0  0
   13.5265  -26.9138  -12.7717 C   0  0  0  0  0  0  0  0  0  0  0  0
   11.1033  -27.0385  -12.8687 C   0  0  0  0  0  0  0  0  0  0  0  0
   10.5952  -27.4848   -9.2766 C   0  0  0  0  0  0  0  0  0  0  0  0
   11.0642  -27.2033  -11.4699 C   0  0  0  0  0  0  0  0  0  0  0  0
   10.0178  -27.3723  -10.5204 C   0  0  0  0  0  0  0  0  0  0  0  0
   12.2673  -27.2181  -10.7609 C   0  0  0  0  0  0  0  0  0  0  0  0
    3.5971  -29.9728   -9.3578 C   0  0  0  0  0  0  0  0  0  0  0  0
    3.8426  -28.5980   -9.3483 C   0  0  0  0  0  0  0  0  0  0  0  0
   12.3417  -26.8951  -13.5049 C   0  0  0  0  0  0  0  0  0  0  0  0
    7.2868  -25.9894   -9.1582 C   0  0  0  0  0  0  0  0  0  0  0  0
    6.6153  -24.5303  -11.0408 C   0  0  0  0  0  0  0  0  0  0  0  0
    5.6891  -23.6005  -10.2852 C   0  0  0  0  0  0  0  0  0  0  0  0
    7.7659  -23.5473   -9.2223 C   0  0  0  0  0  0  0  0  0  0  0  0
    5.7725  -30.3241   -8.6269 C   0  0  0  0  0  0  0  0  0  0  0  0
    7.6888  -24.8322  -10.0233 C   0  0  1  0  0  0  0  0  0  0  0  0
    6.1257  -29.0454   -9.3751 C   0  0  2  0  0  0  0  0  0  0  0  0
    8.5457  -27.4195  -10.8116 C   0  0  0  0  0  0  0  0  0  0  0  0
    7.4314  -28.4502   -8.8687 C   0  0  0  0  0  0  0  0  0  0  0  0
   11.9522  -27.3902   -9.4319 N   0  0  0  0  0  0  0  0  0  0  0  0
    7.7372  -27.2595   -9.5914 N   0  0  0  0  0  0  0  0  0  0  0  0
    6.6079  -25.7794   -8.1495 O   0  0  0  0  0  0  0  0  0  0  0  0
    4.5843  -30.9047   -9.1737 O   0  0  0  0  0  0  0  0  0  0  0  0
    5.0945  -28.0685   -9.1769 O   0  0  0  0  0  0  0  0  0  0  0  0
    6.4933  -22.8915   -9.3360 O   0  0  0  0  0  0  0  0  0  0  0  0
   12.3873  -26.7368  -14.8348 F   0  0  0  0  0  0  0  0  0  0  0  0
    0.2429  -29.9196   -9.9039 H   0  0  0  0  0  0  0  0  0  0  0  0
    0.6712  -27.4781   -9.8382 H   0  0  0  0  0  0  0  0  0  0  0  0
   14.4356  -27.0907  -10.8137 H   0  0  0  0  0  0  0  0  0  0  0  0
    2.1052  -31.5182   -9.5928 H   0  0  0  0  0  0  0  0  0  0  0  0
    2.9679  -26.6271   -9.4890 H   0  0  0  0  0  0  0  0  0  0  0  0
   14.4770  -26.8019  -13.2865 H   0  0  0  0  0  0  0  0  0  0  0  0
   10.1889  -27.0210  -13.4549 H   0  0  0  0  0  0  0  0  0  0  0  0
   10.1640  -27.6237   -8.2949 H   0  0  0  0  0  0  0  0  0  0  0  0
    6.0922  -25.4065  -11.4340 H   0  0  0  0  0  0  0  0  0  0  0  0
    7.0633  -23.9916  -11.8841 H   0  0  0  0  0  0  0  0  0  0  0  0
    5.1819  -22.8886  -10.9427 H   0  0  0  0  0  0  0  0  0  0  0  0
    4.9291  -24.1607   -9.7299 H   0  0  0  0  0  0  0  0  0  0  0  0
    7.9973  -23.6964   -8.1634 H   0  0  0  0  0  0  0  0  0  0  0  0
    8.5161  -22.8736   -9.6495 H   0  0  0  0  0  0  0  0  0  0  0  0
    6.5740  -31.0639   -8.7246 H   0  0  0  0  0  0  0  0  0  0  0  0
    5.6081  -30.1411   -7.5572 H   0  0  0  0  0  0  0  0  0  0  0  0
    8.6465  -25.0954  -10.4816 H   0  0  0  0  0  0  0  0  0  0  0  0
    6.2087  -29.2372  -10.4533 H   0  0  0  0  0  0  0  0  0  0  0  0
    8.2645  -26.6233  -11.5094 H   0  0  0  0  0  0  0  0  0  0  0  0
    8.2672  -28.3717  -11.2753 H   0  0  0  0  0  0  0  0  0  0  0  0
    7.3020  -28.2288   -7.8089 H   0  0  0  0  0  0  0  0  0  0  0  0
    8.2121  -29.1965   -9.0180 H   0  0  0  0  0  0  0  0  0  0  0  0
   12.6257  -27.4405   -8.6801 H   0  0  0  0  0  0  0  0  0  0  0  0
  1  2  1  0  0  0  0
  1  4  2  0  0  0  0
  2  5  2  0  0  0  0
  3  6  1  0  0  0  0
  3 11  2  0  0  0  0
  4 12  1  0  0  0  0
  5 13  1  0  0  0  0
  6 14  2  0  0  0  0
  7  9  2  0  0  0  0
  7 14  1  0  0  0  0
  8 10  2  0  0  0  0
  8 24  1  0  0  0  0
  9 10  1  0  0  0  0
  9 11  1  0  0  0  0
 10 22  1  0  0  0  0
 11 24  1  0  0  0  0
 12 13  2  0  0  0  0
 12 27  1  0  0  0  0
 13 28  1  0  0  0  0
 14 30  1  0  0  0  0
 15 20  1  0  0  0  0
 15 25  1  0  0  0  0
 15 26  2  0  0  0  0
 16 17  1  0  0  0  0
 16 20  1  0  0  0  0
 17 29  1  0  0  0  0
 18 20  1  0  0  0  0
 18 29  1  0  0  0  0
 19 21  1  0  0  0  0
 19 27  1  0  0  0  0
 21 23  1  0  0  0  0
 21 28  1  0  0  0  0
 22 25  1  0  0  0  0
 23 25  1  0  0  0  0
  1 31  1  0  0  0  0
  2 32  1  0  0  0  0
  3 33  1  0  0  0  0
  4 34  1  0  0  0  0
  5 35  1  0  0  0  0
  6 36  1  0  0  0  0
  7 37  1  0  0  0  0
  8 38  1  0  0  0  0
 16 39  1  0  0  0  0
 16 40  1  0  0  0  0
 17 41  1  0  0  0  0
 17 42  1  0  0  0  0
 18 43  1  0  0  0  0
 18 44  1  0  0  0  0
 19 45  1  0  0  0  0
 19 46  1  0  0  0  0
 20 47  1  0  0  0  0
 21 48  1  0  0  0  0
 22 49  1  0  0  0  0
 22 50  1  0  0  0  0
 23 51  1  0  0  0  0
 23 52  1  0  0  0  0
 24 53  1  0  0  0  0
M  END
> <Hybrid2>
-6.618236064910889

> <Hybrid2>
-5.156558

$$$$
C35898062
  -OEChem-02152218483D

 46 48  0     1  0  0  0  0  0999 V2000
    5.3791  -29.4014   -7.3886 C   0  0  0  0  0  0  0  0  0  0  0  0
    4.4954  -28.1814   -9.2774 C   0  0  0  0  0  0  0  0  0  0  0  0
    4.2361  -30.2006   -7.3700 C   0  0  0  0  0  0  0  0  0  0  0  0
    3.3524  -28.9806   -9.2589 C   0  0  0  0  0  0  0  0  0  0  0  0
    5.5088  -28.3917   -8.3423 C   0  0  0  0  0  0  0  0  0  0  0  0
    3.2228  -29.9902   -8.3052 C   0  0  0  0  0  0  0  0  0  0  0  0
   12.7126  -27.5622  -11.8515 C   0  0  0  0  0  0  0  0  0  0  0  0
    6.9605  -26.5371   -9.2352 C   0  0  0  0  0  0  0  0  0  0  0  0
   15.5981  -28.1628  -10.6850 C   0  0  0  0  0  0  0  0  0  0  0  0
   14.6399  -27.0374  -10.3761 C   0  0  0  0  0  0  0  0  0  0  0  0
   11.4458  -25.5433  -10.9708 C   0  0  0  0  0  0  0  0  0  0  0  0
   10.2450  -27.5662  -11.6989 C   0  0  0  0  0  0  0  0  0  0  0  0
   10.5167  -25.4604   -9.7583 C   0  0  0  0  0  0  0  0  0  0  0  0
    9.3437  -27.4483  -10.4703 C   0  0  0  0  0  0  0  0  0  0  0  0
   16.0264  -27.8334  -12.0965 C   0  0  0  0  0  0  0  0  0  0  0  0
   13.9933  -26.7659  -11.7190 C   0  0  1  0  0  0  0  0  0  0  0  0
    8.3116  -25.9320   -8.9065 C   0  0  0  0  0  0  0  0  0  0  0  0
   11.5356  -26.9170  -11.4745 N   0  0  0  0  0  0  0  0  0  0  0  0
    9.2014  -26.0433  -10.0616 N   0  0  0  0  0  0  0  0  0  0  0  0
    6.6687  -27.5811   -8.3614 N   0  0  0  0  0  0  0  0  0  0  0  0
   12.7625  -28.7205  -12.2730 O   0  0  0  0  0  0  0  0  0  0  0  0
    6.2604  -26.1155  -10.1503 O   0  0  0  0  0  0  0  0  0  0  0  0
   14.8909  -27.2329  -12.7330 O   0  0  0  0  0  0  0  0  0  0  0  0
    1.6742  -31.0733   -8.2799 Br  0  0  0  0  0  0  0  0  0  0  0  0
    6.1626  -29.5737   -6.6552 H   0  0  0  0  0  0  0  0  0  0  0  0
    4.5862  -27.3975  -10.0249 H   0  0  0  0  0  0  0  0  0  0  0  0
    4.1503  -30.9832   -6.6208 H   0  0  0  0  0  0  0  0  0  0  0  0
    2.5717  -28.8040   -9.9942 H   0  0  0  0  0  0  0  0  0  0  0  0
   16.4370  -28.2285   -9.9874 H   0  0  0  0  0  0  0  0  0  0  0  0
   15.0634  -29.1198  -10.6699 H   0  0  0  0  0  0  0  0  0  0  0  0
   13.9352  -27.2832   -9.5767 H   0  0  0  0  0  0  0  0  0  0  0  0
   15.2077  -26.1520  -10.0670 H   0  0  0  0  0  0  0  0  0  0  0  0
   11.0602  -24.9264  -11.7920 H   0  0  0  0  0  0  0  0  0  0  0  0
   12.4258  -25.1454  -10.7002 H   0  0  0  0  0  0  0  0  0  0  0  0
   10.3816  -28.6214  -11.9571 H   0  0  0  0  0  0  0  0  0  0  0  0
    9.7825  -27.0759  -12.5645 H   0  0  0  0  0  0  0  0  0  0  0  0
   10.9834  -25.9662   -8.9025 H   0  0  0  0  0  0  0  0  0  0  0  0
   10.3991  -24.4039   -9.4888 H   0  0  0  0  0  0  0  0  0  0  0  0
    8.3600  -27.8602  -10.7266 H   0  0  0  0  0  0  0  0  0  0  0  0
    9.7510  -28.0582   -9.6529 H   0  0  0  0  0  0  0  0  0  0  0  0
   16.8419  -27.1021  -12.1035 H   0  0  0  0  0  0  0  0  0  0  0  0
   16.3423  -28.7159  -12.6597 H   0  0  0  0  0  0  0  0  0  0  0  0
   13.7557  -25.7155  -11.8659 H   0  0  0  0  0  0  0  0  0  0  0  0
    8.7534  -26.4555   -8.0528 H   0  0  0  0  0  0  0  0  0  0  0  0
    8.1752  -24.8786   -8.6428 H   0  0  0  0  0  0  0  0  0  0  0  0
    7.3614  -27.7973   -7.6477 H   0  0  0  0  0  0  0  0  0  0  0  0
  1  3  1  0  0  0  0
  1  5  2  0  0  0  0
  2  4  2  0  0  0  0
  2  5  1  0  0  0  0
  3  6  2  0  0  0  0
  4  6  1  0  0  0  0
  5 20  1  0  0  0  0
  6 24  1  0  0  0  0
  7 16  1  0  0  0  0
  7 18  1  0  0  0  0
  7 21  2  0  0  0  0
  8 17  1  0  0  0  0
  8 20  1  0  0  0  0
  8 22  2  0  0  0  0
  9 10  1  0  0  0  0
  9 15  1  0  0  0  0
 10 16  1  0  0  0  0
 11 13  1  0  0  0  0
 11 18  1  0  0  0  0
 12 14  1  0  0  0  0
 12 18  1  0  0  0  0
 13 19  1  0  0  0  0
 14 19  1  0  0  0  0
 15 23  1  0  0  0  0
 16 23  1  0  0  0  0
 17 19  1  0  0  0  0
  1 25  1  0  0  0  0
  2 26  1  0  0  0  0
  3 27  1  0  0  0  0
  4 28  1  0  0  0  0
  9 29  1  0  0  0  0
  9 30  1  0  0  0  0
 10 31  1  0  0  0  0
 10 32  1  0  0  0  0
 11 33  1  0  0  0  0
 11 34  1  0  0  0  0
 12 35  1  0  0  0  0
 12 36  1  0  0  0  0
 13 37  1  0  0  0  0
 13 38  1  0  0  0  0
 14 39  1  0  0  0  0
 14 40  1  0  0  0  0
 15 41  1  0  0  0  0
 15 42  1  0  0  0  0
 16 43  1  0  0  0  0
 17 44  1  0  0  0  0
 17 45  1  0  0  0  0
 20 46  1  0  0  0  0
M  END
> <Hybrid2>
-3.984651565551758

> <Hybrid2>
-3.984652

$$$$
C35898062
  -OEChem-02152218483D

 46 48  0     1  0  0  0  0  0999 V2000
    5.1590  -29.5383   -7.7160 C   0  0  0  0  0  0  0  0  0  0  0  0
    4.4805  -27.9146   -9.3713 C   0  0  0  0  0  0  0  0  0  0  0  0
    3.9351  -30.1926   -7.8562 C   0  0  0  0  0  0  0  0  0  0  0  0
    3.2566  -28.5689   -9.5115 C   0  0  0  0  0  0  0  0  0  0  0  0
    5.4317  -28.3992   -8.4736 C   0  0  0  0  0  0  0  0  0  0  0  0
    2.9840  -29.7080   -8.7540 C   0  0  0  0  0  0  0  0  0  0  0  0
   12.8000  -27.7985  -11.6742 C   0  0  0  0  0  0  0  0  0  0  0  0
    7.1083  -26.5954   -9.0021 C   0  0  0  0  0  0  0  0  0  0  0  0
   15.5600  -28.9191  -10.5905 C   0  0  0  0  0  0  0  0  0  0  0  0
   14.7211  -27.7629  -10.1010 C   0  0  0  0  0  0  0  0  0  0  0  0
   11.7329  -25.8330  -10.4681 C   0  0  0  0  0  0  0  0  0  0  0  0
   10.3431  -27.5472  -11.5608 C   0  0  0  0  0  0  0  0  0  0  0  0
   10.7772  -25.8574   -9.2739 C   0  0  0  0  0  0  0  0  0  0  0  0
    9.4182  -27.5433  -10.3442 C   0  0  0  0  0  0  0  0  0  0  0  0
   16.0704  -28.3995  -11.9148 C   0  0  0  0  0  0  0  0  0  0  0  0
   14.1550  -27.1892  -11.3839 C   0  0  1  0  0  0  0  0  0  0  0  0
    8.5056  -26.2154   -8.5516 C   0  0  0  0  0  0  0  0  0  0  0  0
   11.6887  -27.0988  -11.2060 N   0  0  0  0  0  0  0  0  0  0  0  0
    9.4172  -26.2243   -9.6950 N   0  0  0  0  0  0  0  0  0  0  0  0
    6.6735  -27.7356   -8.3316 N   0  0  0  0  0  0  0  0  0  0  0  0
   12.7369  -28.8634  -12.2936 O   0  0  0  0  0  0  0  0  0  0  0  0
    6.4909  -25.9434   -9.8381 O   0  0  0  0  0  0  0  0  0  0  0  0
   15.0304  -27.5714  -12.4513 O   0  0  0  0  0  0  0  0  0  0  0  0
    1.3258  -30.5947   -8.9438 Br  0  0  0  0  0  0  0  0  0  0  0  0
    5.8929  -29.9244   -7.0134 H   0  0  0  0  0  0  0  0  0  0  0  0
    4.6826  -27.0279   -9.9665 H   0  0  0  0  0  0  0  0  0  0  0  0
    3.7380  -31.0789   -7.2589 H   0  0  0  0  0  0  0  0  0  0  0  0
    2.5259  -28.1787  -10.2152 H   0  0  0  0  0  0  0  0  0  0  0  0
   16.3620  -29.2008   -9.9034 H   0  0  0  0  0  0  0  0  0  0  0  0
   14.9232  -29.7966  -10.7531 H   0  0  0  0  0  0  0  0  0  0  0  0
   13.9665  -28.0623   -9.3683 H   0  0  0  0  0  0  0  0  0  0  0  0
   15.3717  -27.0158   -9.6315 H   0  0  0  0  0  0  0  0  0  0  0  0
   11.4461  -25.0423  -11.1724 H   0  0  0  0  0  0  0  0  0  0  0  0
   12.7408  -25.6030  -10.1170 H   0  0  0  0  0  0  0  0  0  0  0  0
   10.3719  -28.5497  -12.0001 H   0  0  0  0  0  0  0  0  0  0  0  0
    9.9675  -26.8638  -12.3325 H   0  0  0  0  0  0  0  0  0  0  0  0
   11.1556  -26.5547   -8.5145 H   0  0  0  0  0  0  0  0  0  0  0  0
   10.7672  -24.8577   -8.8231 H   0  0  0  0  0  0  0  0  0  0  0  0
    8.4048  -27.7890  -10.6838 H   0  0  0  0  0  0  0  0  0  0  0  0
    9.7276  -28.3289   -9.6420 H   0  0  0  0  0  0  0  0  0  0  0  0
   16.9611  -27.7763  -11.7800 H   0  0  0  0  0  0  0  0  0  0  0  0
   16.3068  -29.2004  -12.6208 H   0  0  0  0  0  0  0  0  0  0  0  0
   14.0395  -26.1090  -11.3456 H   0  0  0  0  0  0  0  0  0  0  0  0
    8.8574  -26.9268   -7.7978 H   0  0  0  0  0  0  0  0  0  0  0  0
    8.4766  -25.2155   -8.1073 H   0  0  0  0  0  0  0  0  0  0  0  0
    7.3133  -28.1507   -7.6575 H   0  0  0  0  0  0  0  0  0  0  0  0
  1  3  1  0  0  0  0
  1  5  2  0  0  0  0
  2  4  2  0  0  0  0
  2  5  1  0  0  0  0
  3  6  2  0  0  0  0
  4  6  1  0  0  0  0
  5 20  1  0  0  0  0
  6 24  1  0  0  0  0
  7 16  1  0  0  0  0
  7 18  1  0  0  0  0
  7 21  2  0  0  0  0
  8 17  1  0  0  0  0
  8 20  1  0  0  0  0
  8 22  2  0  0  0  0
  9 10  1  0  0  0  0
  9 15  1  0  0  0  0
 10 16  1  0  0  0  0
 11 13  1  0  0  0  0
 11 18  1  0  0  0  0
 12 14  1  0  0  0  0
 12 18  1  0  0  0  0
 13 19  1  0  0  0  0
 14 19  1  0  0  0  0
 15 23  1  0  0  0  0
 16 23  1  0  0  0  0
 17 19  1  0  0  0  0
  1 25  1  0  0  0  0
  2 26  1  0  0  0  0
  3 27  1  0  0  0  0
  4 28  1  0  0  0  0
  9 29  1  0  0  0  0
  9 30  1  0  0  0  0
 10 31  1  0  0  0  0
 10 32  1  0  0  0  0
 11 33  1  0  0  0  0
 11 34  1  0  0  0  0
 12 35  1  0  0  0  0
 12 36  1  0  0  0  0
 13 37  1  0  0  0  0
 13 38  1  0  0  0  0
 14 39  1  0  0  0  0
 14 40  1  0  0  0  0
 15 41  1  0  0  0  0
 15 42  1  0  0  0  0
 16 43  1  0  0  0  0
 17 44  1  0  0  0  0
 17 45  1  0  0  0  0
 20 46  1  0  0  0  0
M  END
> <Hybrid2>
-3.984651565551758

> <Hybrid2>
-2.882390

$$$$
C39237573
  -OEChem-02152218483D

 27 28  0     1  0  0  0  0  0999 V2000
   12.0539  -26.2274  -10.9127 C   0  0  0  0  0  0  0  0  0  0  0  0
   11.0128  -26.7695  -11.5398 C   0  0  0  0  0  0  0  0  0  0  0  0
    6.7809  -28.8060   -8.8795 C   0  0  0  0  0  0  0  0  0  0  0  0
    8.8322  -26.5075  -10.4291 C   0  0  0  0  0  0  0  0  0  0  0  0
    5.6813  -27.7904   -8.9517 C   0  0  0  0  0  0  0  0  0  0  0  0
   10.1407  -27.2604  -10.4554 C   0  0  2  0  0  0  0  0  0  0  0  0
    6.4103  -26.6636   -9.6763 C   0  0  1  0  0  0  0  0  0  0  0  0
    6.5445  -30.1491   -8.2739 C   0  0  0  0  0  0  0  0  0  0  0  0
    6.3289  -25.3495   -8.9094 C   0  0  0  0  0  0  0  0  0  0  0  0
   11.9507  -26.2936   -9.5489 N   0  0  0  0  0  0  0  0  0  0  0  0
    7.9303  -28.4408   -9.3502 N   0  0  0  0  0  0  0  0  0  0  0  0
   10.8712  -26.8697   -9.2277 N   0  0  0  0  0  0  0  0  0  0  0  0
    7.7788  -27.1696   -9.8234 N   0  0  0  0  0  0  0  0  0  0  0  0
    8.7513  -25.3860  -10.9316 O   0  0  0  0  0  0  0  0  0  0  0  0
    5.8455  -26.4830  -10.9702 O   0  0  0  0  0  0  0  0  0  0  0  0
    6.1435  -30.0344   -6.9858 F   0  0  0  0  0  0  0  0  0  0  0  0
    5.5631  -30.8066   -8.9359 F   0  0  0  0  0  0  0  0  0  0  0  0
    5.0331  -24.9876   -8.8024 F   0  0  0  0  0  0  0  0  0  0  0  0
    6.9612  -24.3914   -9.6189 F   0  0  0  0  0  0  0  0  0  0  0  0
   10.7128  -26.9746  -13.4984 I   0  0  0  0  0  0  0  0  0  0  0  0
   12.9241  -25.7789  -11.3698 H   0  0  0  0  0  0  0  0  0  0  0  0
    4.8354  -28.2022   -9.5090 H   0  0  0  0  0  0  0  0  0  0  0  0
    5.3833  -27.5372   -7.9299 H   0  0  0  0  0  0  0  0  0  0  0  0
    9.9551  -28.3323  -10.4823 H   0  0  0  0  0  0  0  0  0  0  0  0
    7.4604  -30.7376   -8.3161 H   0  0  0  0  0  0  0  0  0  0  0  0
    6.7729  -25.4333   -7.9215 H   0  0  0  0  0  0  0  0  0  0  0  0
    6.3387  -25.7607  -11.3899 H   0  0  0  0  0  0  0  0  0  0  0  0
  1  2  2  0  0  0  0
  1 10  1  0  0  0  0
  2  6  1  0  0  0  0
  2 20  1  0  0  0  0
  3  5  1  0  0  0  0
  3  8  1  0  0  0  0
  3 11  2  0  0  0  0
  4  6  1  0  0  0  0
  4 13  1  0  0  0  0
  4 14  2  0  0  0  0
  5  7  1  0  0  0  0
  6 12  1  0  0  0  0
  7  9  1  0  0  0  0
  7 13  1  0  0  0  0
  7 15  1  0  0  0  0
  8 16  1  0  0  0  0
  8 17  1  0  0  0  0
  9 18  1  0  0  0  0
  9 19  1  0  0  0  0
 10 12  2  0  0  0  0
 11 13  1  0  0  0  0
  1 21  1  0  0  0  0
  5 22  1  0  0  0  0
  5 23  1  0  0  0  0
  6 24  1  0  0  0  0
  8 25  1  0  0  0  0
  9 26  1  0  0  0  0
 15 27  1  0  0  0  0
M  END
> <Hybrid2>
-4.9606547355651855

> <Hybrid2>
-4.960655

$$$$
C39237573
  -OEChem-02152218483D

 27 28  0     1  0  0  0  0  0999 V2000
   13.1965  -26.3228  -11.3113 C   0  0  0  0  0  0  0  0  0  0  0  0
   12.0980  -26.6329  -11.9955 C   0  0  0  0  0  0  0  0  0  0  0  0
    7.7813  -28.8799   -9.6606 C   0  0  0  0  0  0  0  0  0  0  0  0
    9.9762  -26.4582  -10.7605 C   0  0  0  0  0  0  0  0  0  0  0  0
    6.7686  -27.7932   -9.4621 C   0  0  0  0  0  0  0  0  0  0  0  0
   11.2163  -27.2835  -11.0070 C   0  0  2  0  0  0  0  0  0  0  0  0
    7.5700  -26.5928   -9.9550 C   0  0  1  0  0  0  0  0  0  0  0  0
    7.4495  -30.3016   -9.3522 C   0  0  0  0  0  0  0  0  0  0  0  0
    7.6182  -25.4778   -8.9176 C   0  0  0  0  0  0  0  0  0  0  0  0
   13.1234  -26.6800   -9.9915 N   0  0  0  0  0  0  0  0  0  0  0  0
    8.9445  -28.5079  -10.0901 N   0  0  0  0  0  0  0  0  0  0  0  0
   12.0083  -27.2294   -9.7567 N   0  0  0  0  0  0  0  0  0  0  0  0
    8.8873  -27.1560  -10.2682 N   0  0  0  0  0  0  0  0  0  0  0  0
    9.9761  -25.2507  -11.0028 O   0  0  0  0  0  0  0  0  0  0  0  0
    6.9889  -26.0892  -11.1527 O   0  0  0  0  0  0  0  0  0  0  0  0
    7.0930  -30.4438   -8.0539 F   0  0  0  0  0  0  0  0  0  0  0  0
    6.3999  -30.7209  -10.0982 F   0  0  0  0  0  0  0  0  0  0  0  0
    6.3603  -25.0515   -8.6781 F   0  0  0  0  0  0  0  0  0  0  0  0
    8.3097  -24.4375   -9.4284 F   0  0  0  0  0  0  0  0  0  0  0  0
   11.7313  -26.3778  -13.9367 I   0  0  0  0  0  0  0  0  0  0  0  0
   14.0888  -25.8517  -11.6972 H   0  0  0  0  0  0  0  0  0  0  0  0
    5.8772  -28.0068  -10.0583 H   0  0  0  0  0  0  0  0  0  0  0  0
    6.5193  -27.7498   -8.3976 H   0  0  0  0  0  0  0  0  0  0  0  0
   10.9413  -28.3058  -11.2585 H   0  0  0  0  0  0  0  0  0  0  0  0
    8.3118  -30.9339   -9.5613 H   0  0  0  0  0  0  0  0  0  0  0  0
    8.0791  -25.8107   -7.9920 H   0  0  0  0  0  0  0  0  0  0  0  0
    7.5296  -25.3315  -11.4262 H   0  0  0  0  0  0  0  0  0  0  0  0
  1  2  2  0  0  0  0
  1 10  1  0  0  0  0
  2  6  1  0  0  0  0
  2 20  1  0  0  0  0
  3  5  1  0  0  0  0
  3  8  1  0  0  0  0
  3 11  2  0  0  0  0
  4  6  1  0  0  0  0
  4 13  1  0  0  0  0
  4 14  2  0  0  0  0
  5  7  1  0  0  0  0
  6 12  1  0  0  0  0
  7  9  1  0  0  0  0
  7 13  1  0  0  0  0
  7 15  1  0  0  0  0
  8 16  1  0  0  0  0
  8 17  1  0  0  0  0
  9 18  1  0  0  0  0
  9 19  1  0  0  0  0
 10 12  2  0  0  0  0
 11 13  1  0  0  0  0
  1 21  1  0  0  0  0
  5 22  1  0  0  0  0
  5 23  1  0  0  0  0
  6 24  1  0  0  0  0
  8 25  1  0  0  0  0
  9 26  1  0  0  0  0
 15 27  1  0  0  0  0
M  END
> <Hybrid2>
-4.9606547355651855

> <Hybrid2>
-4.867293

$$$$
C39458606
  -OEChem-02152218483D

 41 43  0     0  0  0  0  0  0999 V2000
    9.4469  -26.1793  -11.0826 C   0  0  0  0  0  0  0  0  0  0  0  0
   10.4814  -25.2115  -11.1462 C   0  0  0  0  0  0  0  0  0  0  0  0
    8.4435  -25.6644  -10.2865 C   0  0  0  0  0  0  0  0  0  0  0  0
   10.0779  -24.1315  -10.3930 C   0  0  0  0  0  0  0  0  0  0  0  0
    4.5466  -27.0358   -9.1975 C   0  0  0  0  0  0  0  0  0  0  0  0
    4.8350  -25.7648   -9.4791 C   0  0  0  0  0  0  0  0  0  0  0  0
    7.1764  -26.1901   -9.9054 C   0  0  0  0  0  0  0  0  0  0  0  0
    7.0491  -27.5218   -9.6560 C   0  0  0  0  0  0  0  0  0  0  0  0
    5.6609  -28.0162   -9.2759 C   0  0  0  0  0  0  0  0  0  0  0  0
    8.1746  -28.5266   -9.6069 C   0  0  0  0  0  0  0  0  0  0  0  0
    9.3735  -27.5195  -11.7085 C   0  0  0  0  0  0  0  0  0  0  0  0
    9.2931  -28.5995  -10.6425 C   0  0  0  0  0  0  0  0  0  0  0  0
   10.8048  -22.8610  -10.1515 C   0  0  0  0  0  0  0  0  0  0  0  0
   13.0022  -26.5899   -9.8373 C   0  0  0  0  0  0  0  0  0  0  0  0
   14.1050  -26.9880  -12.0616 C   0  0  0  0  0  0  0  0  0  0  0  0
   12.7884  -26.7586  -11.3343 C   0  0  0  0  0  0  0  0  0  0  0  0
    8.8380  -24.4136   -9.8792 N   0  0  0  0  0  0  0  0  0  0  0  0
    6.0831  -25.3415   -9.8228 N   0  0  0  0  0  0  0  0  0  0  0  0
    5.4383  -29.2024   -9.0476 O   0  0  0  0  0  0  0  0  0  0  0  0
    8.1681  -29.3619   -8.6948 O   0  0  0  0  0  0  0  0  0  0  0  0
   11.6687  -25.6224  -13.4152 O   0  0  0  0  0  0  0  0  0  0  0  0
   12.8090  -24.1773  -11.6954 O   0  0  0  0  0  0  0  0  0  0  0  0
   11.9512  -25.3285  -12.0054 S   0  0  0  0  0  0  0  0  0  0  0  0
    7.8636  -22.9667   -9.1843 Br  0  0  0  0  0  0  0  0  0  0  0  0
    3.5558  -27.3688   -8.9121 H   0  0  0  0  0  0  0  0  0  0  0  0
    4.0910  -24.9818   -9.4525 H   0  0  0  0  0  0  0  0  0  0  0  0
    8.4988  -27.5670  -12.3489 H   0  0  0  0  0  0  0  0  0  0  0  0
   10.2578  -27.7032  -12.3090 H   0  0  0  0  0  0  0  0  0  0  0  0
   10.2809  -28.6914  -10.0872 H   0  0  0  0  0  0  0  0  0  0  0  0
    9.2165  -29.6178  -11.1354 H   0  0  0  0  0  0  0  0  0  0  0  0
   10.5509  -22.1141  -10.9179 H   0  0  0  0  0  0  0  0  0  0  0  0
   10.5618  -22.4343   -9.1662 H   0  0  0  0  0  0  0  0  0  0  0  0
   11.8960  -23.0070  -10.1659 H   0  0  0  0  0  0  0  0  0  0  0  0
   13.6682  -25.7460   -9.6303 H   0  0  0  0  0  0  0  0  0  0  0  0
   12.0543  -26.4133   -9.3172 H   0  0  0  0  0  0  0  0  0  0  0  0
   13.4526  -27.4897   -9.4046 H   0  0  0  0  0  0  0  0  0  0  0  0
   14.7928  -26.1520  -11.8982 H   0  0  0  0  0  0  0  0  0  0  0  0
   13.9500  -27.0977  -13.1405 H   0  0  0  0  0  0  0  0  0  0  0  0
   14.5928  -27.9014  -11.7046 H   0  0  0  0  0  0  0  0  0  0  0  0
   12.1200  -27.6077  -11.5139 H   0  0  0  0  0  0  0  0  0  0  0  0
    6.2115  -24.3512   -9.9695 H   0  0  0  0  0  0  0  0  0  0  0  0
  1  2  1  0  0  0  0
  1  3  2  0  0  0  0
  1 11  1  0  0  0  0
  2  4  2  0  0  0  0
  2 23  1  0  0  0  0
  3  7  1  0  0  0  0
  3 17  1  0  0  0  0
  4 13  1  0  0  0  0
  4 17  1  0  0  0  0
  5  6  2  0  0  0  0
  5  9  1  0  0  0  0
  6 18  1  0  0  0  0
  7  8  2  0  0  0  0
  7 18  1  0  0  0  0
  8  9  1  0  0  0  0
  8 10  1  0  0  0  0
  9 19  2  0  0  0  0
 10 12  1  0  0  0  0
 10 20  2  0  0  0  0
 11 12  1  0  0  0  0
 14 16  1  0  0  0  0
 15 16  1  0  0  0  0
 16 23  1  0  0  0  0
 17 24  1  0  0  0  0
 21 23  2  0  0  0  0
 22 23  2  0  0  0  0
  5 25  1  0  0  0  0
  6 26  1  0  0  0  0
 11 27  1  0  0  0  0
 11 28  1  0  0  0  0
 12 29  1  0  0  0  0
 12 30  1  0  0  0  0
 13 31  1  0  0  0  0
 13 32  1  0  0  0  0
 13 33  1  0  0  0  0
 14 34  1  0  0  0  0
 14 35  1  0  0  0  0
 14 36  1  0  0  0  0
 15 37  1  0  0  0  0
 15 38  1  0  0  0  0
 15 39  1  0  0  0  0
 16 40  1  0  0  0  0
 18 41  1  0  0  0  0
M  END
> <Hybrid2>
-4.49457311630249

> <Hybrid2>
-4.494573

$$$$
C39458606
  -OEChem-02152218483D

 41 43  0     0  0  0  0  0  0999 V2000
   10.7671  -26.1046  -11.6605 C   0  0  0  0  0  0  0  0  0  0  0  0
   12.1707  -26.2193  -11.8265 C   0  0  0  0  0  0  0  0  0  0  0  0
   10.4066  -26.9080  -10.5972 C   0  0  0  0  0  0  0  0  0  0  0  0
   12.6262  -27.0936  -10.8648 C   0  0  0  0  0  0  0  0  0  0  0  0
    6.6591  -27.9795   -8.8479 C   0  0  0  0  0  0  0  0  0  0  0  0
    7.6710  -28.8314   -9.0162 C   0  0  0  0  0  0  0  0  0  0  0  0
    9.1390  -27.1896  -10.0132 C   0  0  0  0  0  0  0  0  0  0  0  0
    8.2078  -26.2018   -9.9204 C   0  0  0  0  0  0  0  0  0  0  0  0
    6.8685  -26.5808   -9.3049 C   0  0  0  0  0  0  0  0  0  0  0  0
    8.4211  -24.7465  -10.2607 C   0  0  0  0  0  0  0  0  0  0  0  0
    9.7928  -25.2932  -12.4258 C   0  0  0  0  0  0  0  0  0  0  0  0
    9.1328  -24.2652  -11.5221 C   0  0  0  0  0  0  0  0  0  0  0  0
   14.0202  -27.5363  -10.6166 C   0  0  0  0  0  0  0  0  0  0  0  0
   14.0584  -25.8953  -15.4948 C   0  0  0  0  0  0  0  0  0  0  0  0
   11.7656  -26.7474  -14.9125 C   0  0  0  0  0  0  0  0  0  0  0  0
   13.1782  -26.4935  -14.4074 C   0  0  0  0  0  0  0  0  0  0  0  0
   11.5478  -27.5102  -10.1269 N   0  0  0  0  0  0  0  0  0  0  0  0
    8.8612  -28.4749   -9.5740 N   0  0  0  0  0  0  0  0  0  0  0  0
    5.9569  -25.7657   -9.1904 O   0  0  0  0  0  0  0  0  0  0  0  0
    7.9597  -23.8960   -9.4903 O   0  0  0  0  0  0  0  0  0  0  0  0
   12.4778  -24.1778  -13.3965 O   0  0  0  0  0  0  0  0  0  0  0  0
   14.5275  -25.3365  -12.5009 O   0  0  0  0  0  0  0  0  0  0  0  0
   13.1413  -25.4185  -12.9792 S   0  0  0  0  0  0  0  0  0  0  0  0
   11.9204  -28.3704   -8.5001 Br  0  0  0  0  0  0  0  0  0  0  0  0
    5.7107  -28.2662   -8.4092 H   0  0  0  0  0  0  0  0  0  0  0  0
    7.6116  -29.8683   -8.7185 H   0  0  0  0  0  0  0  0  0  0  0  0
   10.3064  -24.7932  -13.2403 H   0  0  0  0  0  0  0  0  0  0  0  0
    9.0163  -25.9281  -12.8382 H   0  0  0  0  0  0  0  0  0  0  0  0
    8.4060  -23.6190  -12.1108 H   0  0  0  0  0  0  0  0  0  0  0  0
    9.8998  -23.4980  -11.1921 H   0  0  0  0  0  0  0  0  0  0  0  0
   14.5205  -26.8677   -9.9007 H   0  0  0  0  0  0  0  0  0  0  0  0
   14.0560  -28.5588  -10.2103 H   0  0  0  0  0  0  0  0  0  0  0  0
   14.6145  -27.5495  -11.5433 H   0  0  0  0  0  0  0  0  0  0  0  0
   13.6418  -24.9506  -15.8592 H   0  0  0  0  0  0  0  0  0  0  0  0
   15.0717  -25.7025  -15.1256 H   0  0  0  0  0  0  0  0  0  0  0  0
   14.1427  -26.5782  -16.3469 H   0  0  0  0  0  0  0  0  0  0  0  0
   11.3040  -25.8195  -15.2656 H   0  0  0  0  0  0  0  0  0  0  0  0
   11.1305  -27.1673  -14.1248 H   0  0  0  0  0  0  0  0  0  0  0  0
   11.7720  -27.4595  -15.7447 H   0  0  0  0  0  0  0  0  0  0  0  0
   13.6163  -27.4358  -14.0608 H   0  0  0  0  0  0  0  0  0  0  0  0
    9.5431  -29.2057   -9.7151 H   0  0  0  0  0  0  0  0  0  0  0  0
  1  2  1  0  0  0  0
  1  3  2  0  0  0  0
  1 11  1  0  0  0  0
  2  4  2  0  0  0  0
  2 23  1  0  0  0  0
  3  7  1  0  0  0  0
  3 17  1  0  0  0  0
  4 13  1  0  0  0  0
  4 17  1  0  0  0  0
  5  6  2  0  0  0  0
  5  9  1  0  0  0  0
  6 18  1  0  0  0  0
  7  8  2  0  0  0  0
  7 18  1  0  0  0  0
  8  9  1  0  0  0  0
  8 10  1  0  0  0  0
  9 19  2  0  0  0  0
 10 12  1  0  0  0  0
 10 20  2  0  0  0  0
 11 12  1  0  0  0  0
 14 16  1  0  0  0  0
 15 16  1  0  0  0  0
 16 23  1  0  0  0  0
 17 24  1  0  0  0  0
 21 23  2  0  0  0  0
 22 23  2  0  0  0  0
  5 25  1  0  0  0  0
  6 26  1  0  0  0  0
 11 27  1  0  0  0  0
 11 28  1  0  0  0  0
 12 29  1  0  0  0  0
 12 30  1  0  0  0  0
 13 31  1  0  0  0  0
 13 32  1  0  0  0  0
 13 33  1  0  0  0  0
 14 34  1  0  0  0  0
 14 35  1  0  0  0  0
 14 36  1  0  0  0  0
 15 37  1  0  0  0  0
 15 38  1  0  0  0  0
 15 39  1  0  0  0  0
 16 40  1  0  0  0  0
 18 41  1  0  0  0  0
M  END
> <Hybrid2>
-4.49457311630249

> <Hybrid2>
-4.361273

$$$$
C39515644
  -OEChem-02152218483D

 52 55  0     1  0  0  0  0  0999 V2000
   15.1655  -28.0696  -10.7667 C   0  0  0  0  0  0  0  0  0  0  0  0
   15.4466  -26.7092  -10.8936 C   0  0  0  0  0  0  0  0  0  0  0  0
    4.8860  -26.1552   -9.2411 C   0  0  0  0  0  0  0  0  0  0  0  0
    3.9933  -27.2153   -9.1036 C   0  0  0  0  0  0  0  0  0  0  0  0
   13.9454  -28.5772  -11.2131 C   0  0  0  0  0  0  0  0  0  0  0  0
   14.5090  -25.8505  -11.4679 C   0  0  0  0  0  0  0  0  0  0  0  0
    6.2607  -26.3921   -9.2113 C   0  0  0  0  0  0  0  0  0  0  0  0
    4.4739  -28.5136   -8.9407 C   0  0  0  0  0  0  0  0  0  0  0  0
   12.9979  -27.7181  -11.7758 C   0  0  0  0  0  0  0  0  0  0  0  0
   13.2785  -26.3504  -11.9034 C   0  0  0  0  0  0  0  0  0  0  0  0
    6.7580  -27.6939   -9.0462 C   0  0  0  0  0  0  0  0  0  0  0  0
    5.8506  -28.7558   -8.9231 C   0  0  0  0  0  0  0  0  0  0  0  0
   10.1335  -27.3570  -10.5146 C   0  0  0  0  0  0  0  0  0  0  0  0
   11.6788  -28.2141  -12.3002 C   0  0  0  0  0  0  0  0  0  0  0  0
   12.2586  -25.4747  -12.5775 C   0  0  0  0  0  0  0  0  0  0  0  0
    8.5422  -29.3198   -8.4356 C   0  0  0  0  0  0  0  0  0  0  0  0
    7.5959  -30.3453   -9.0447 C   0  0  0  0  0  0  0  0  0  0  0  0
    8.2446  -27.9326   -9.0039 C   0  0  1  0  0  0  0  0  0  0  0  0
   10.5281  -27.2576  -11.9573 C   0  0  2  0  0  0  0  0  0  0  0  0
    9.0834  -24.5423  -15.6498 C   0  0  0  0  0  0  0  0  0  0  0  0
   10.0226  -25.2535  -14.7015 C   0  0  0  0  0  0  0  0  0  0  0  0
   10.8471  -25.8225  -12.2449 N   0  0  2  0  0  0  0  0  0  0  0  0
    8.8295  -27.7684  -10.3150 N   0  0  0  0  0  0  0  0  0  0  0  0
   10.9513  -27.0824   -9.6442 O   0  0  0  0  0  0  0  0  0  0  0  0
    9.9128  -23.4888  -12.7778 O   0  0  0  0  0  0  0  0  0  0  0  0
    8.3447  -25.4693  -12.7101 O   0  0  0  0  0  0  0  0  0  0  0  0
    6.2269  -30.0619   -8.7423 O   0  0  0  0  0  0  0  0  0  0  0  0
    9.6363  -24.8899  -13.0084 S   0  0  0  0  0  0  0  0  0  0  0  0
   15.8997  -28.7347  -10.3202 H   0  0  0  0  0  0  0  0  0  0  0  0
   16.3990  -26.3183  -10.5457 H   0  0  0  0  0  0  0  0  0  0  0  0
    4.5125  -25.1432   -9.3677 H   0  0  0  0  0  0  0  0  0  0  0  0
    2.9232  -27.0305   -9.1220 H   0  0  0  0  0  0  0  0  0  0  0  0
   13.7437  -29.6376  -11.1172 H   0  0  0  0  0  0  0  0  0  0  0  0
   14.7459  -24.7977  -11.5728 H   0  0  0  0  0  0  0  0  0  0  0  0
    6.9447  -25.5529   -9.3130 H   0  0  0  0  0  0  0  0  0  0  0  0
    3.7695  -29.3343   -8.8319 H   0  0  0  0  0  0  0  0  0  0  0  0
   11.7630  -28.3008  -13.3844 H   0  0  0  0  0  0  0  0  0  0  0  0
   11.4633  -29.1993  -11.8861 H   0  0  0  0  0  0  0  0  0  0  0  0
   12.4452  -24.4335  -12.2940 H   0  0  0  0  0  0  0  0  0  0  0  0
   12.3772  -25.5743  -13.6618 H   0  0  0  0  0  0  0  0  0  0  0  0
    8.3836  -29.2964   -7.3491 H   0  0  0  0  0  0  0  0  0  0  0  0
    9.5881  -29.6006   -8.6036 H   0  0  0  0  0  0  0  0  0  0  0  0
    7.7134  -30.4185  -10.1325 H   0  0  0  0  0  0  0  0  0  0  0  0
    7.8178  -31.3348   -8.6309 H   0  0  0  0  0  0  0  0  0  0  0  0
    8.7203  -27.1851   -8.3563 H   0  0  0  0  0  0  0  0  0  0  0  0
    9.6378  -27.5499  -12.5333 H   0  0  0  0  0  0  0  0  0  0  0  0
    8.0509  -24.8586  -15.4745 H   0  0  0  0  0  0  0  0  0  0  0  0
    9.1376  -23.4570  -15.5152 H   0  0  0  0  0  0  0  0  0  0  0  0
    9.3376  -24.7613  -16.6919 H   0  0  0  0  0  0  0  0  0  0  0  0
   11.0576  -24.9433  -14.8697 H   0  0  0  0  0  0  0  0  0  0  0  0
    9.9537  -26.3380  -14.8223 H   0  0  0  0  0  0  0  0  0  0  0  0
    8.2546  -27.9647  -11.1289 H   0  0  0  0  0  0  0  0  0  0  0  0
  1  2  1  0  0  0  0
  1  5  2  0  0  0  0
  2  6  2  0  0  0  0
  3  4  2  0  0  0  0
  3  7  1  0  0  0  0
  4  8  1  0  0  0  0
  5  9  1  0  0  0  0
  6 10  1  0  0  0  0
  7 11  2  0  0  0  0
  8 12  2  0  0  0  0
  9 10  2  0  0  0  0
  9 14  1  0  0  0  0
 10 15  1  0  0  0  0
 11 12  1  0  0  0  0
 11 18  1  0  0  0  0
 12 27  1  0  0  0  0
 13 19  1  0  0  0  0
 13 23  1  0  0  0  0
 13 24  2  0  0  0  0
 14 19  1  0  0  0  0
 15 22  1  0  0  0  0
 16 17  1  0  0  0  0
 16 18  1  0  0  0  0
 17 27  1  0  0  0  0
 18 23  1  0  0  0  0
 19 22  1  0  0  0  0
 20 21  1  0  0  0  0
 21 28  1  0  0  0  0
 22 28  1  0  0  0  0
 25 28  2  0  0  0  0
 26 28  2  0  0  0  0
  1 29  1  0  0  0  0
  2 30  1  0  0  0  0
  3 31  1  0  0  0  0
  4 32  1  0  0  0  0
  5 33  1  0  0  0  0
  6 34  1  0  0  0  0
  7 35  1  0  0  0  0
  8 36  1  0  0  0  0
 14 37  1  0  0  0  0
 14 38  1  0  0  0  0
 15 39  1  0  0  0  0
 15 40  1  0  0  0  0
 16 41  1  0  0  0  0
 16 42  1  0  0  0  0
 17 43  1  0  0  0  0
 17 44  1  0  0  0  0
 18 45  1  0  0  0  0
 19 46  1  0  0  0  0
 20 47  1  0  0  0  0
 20 48  1  0  0  0  0
 20 49  1  0  0  0  0
 21 50  1  0  0  0  0
 21 51  1  0  0  0  0
 23 52  1  0  0  0  0
M  END
> <Hybrid2>
-2.462049961090088

> <Hybrid2>
-2.462050

$$$$
C39515644
  -OEChem-02152218483D

 52 55  0     1  0  0  0  0  0999 V2000
   15.6790  -27.3906  -10.2794 C   0  0  0  0  0  0  0  0  0  0  0  0
   15.6941  -26.1072   -9.7398 C   0  0  0  0  0  0  0  0  0  0  0  0
    4.8671  -26.7858   -9.2934 C   0  0  0  0  0  0  0  0  0  0  0  0
    4.1001  -27.9391   -9.4387 C   0  0  0  0  0  0  0  0  0  0  0  0
   14.5338  -27.8643  -10.9188 C   0  0  0  0  0  0  0  0  0  0  0  0
   14.5658  -25.2943   -9.8434 C   0  0  0  0  0  0  0  0  0  0  0  0
    6.2478  -26.8836   -9.1175 C   0  0  0  0  0  0  0  0  0  0  0  0
    4.7129  -29.1909   -9.4126 C   0  0  0  0  0  0  0  0  0  0  0  0
   13.3898  -27.0598  -11.0172 C   0  0  0  0  0  0  0  0  0  0  0  0
   13.4110  -25.7580  -10.4901 C   0  0  0  0  0  0  0  0  0  0  0  0
    6.8773  -28.1374   -9.0876 C   0  0  0  0  0  0  0  0  0  0  0  0
    6.0976  -29.2916   -9.2491 C   0  0  0  0  0  0  0  0  0  0  0  0
   10.3332  -27.2204  -10.0255 C   0  0  0  0  0  0  0  0  0  0  0  0
   12.1720  -27.5779  -11.7405 C   0  0  0  0  0  0  0  0  0  0  0  0
   12.2004  -24.8626  -10.5724 C   0  0  0  0  0  0  0  0  0  0  0  0
    8.7637  -29.6525   -8.4996 C   0  0  0  0  0  0  0  0  0  0  0  0
    8.0255  -30.6532   -9.3779 C   0  0  0  0  0  0  0  0  0  0  0  0
    8.3672  -28.2276   -8.8847 C   0  0  1  0  0  0  0  0  0  0  0  0
   10.8759  -26.8433  -11.3703 C   0  0  2  0  0  0  0  0  0  0  0  0
    7.9969  -23.4346   -9.7628 C   0  0  0  0  0  0  0  0  0  0  0  0
    9.2322  -24.2901   -9.9336 C   0  0  0  0  0  0  0  0  0  0  0  0
   11.1141  -25.3717  -11.4613 N   0  0  2  0  0  0  0  0  0  0  0  0
    9.0746  -27.7894  -10.0661 N   0  0  0  0  0  0  0  0  0  0  0  0
   11.0060  -27.0126   -9.0226 O   0  0  0  0  0  0  0  0  0  0  0  0
    8.7296  -25.0731  -12.3752 O   0  0  0  0  0  0  0  0  0  0  0  0
   10.1869  -23.0395  -12.0198 O   0  0  0  0  0  0  0  0  0  0  0  0
    6.6066  -30.5645   -9.2207 O   0  0  0  0  0  0  0  0  0  0  0  0
    9.7451  -24.3609  -11.6307 S   0  0  0  0  0  0  0  0  0  0  0  0
   16.5592  -28.0222  -10.2034 H   0  0  0  0  0  0  0  0  0  0  0  0
   16.5849  -25.7383   -9.2398 H   0  0  0  0  0  0  0  0  0  0  0  0
    4.3905  -25.8102   -9.3131 H   0  0  0  0  0  0  0  0  0  0  0  0
    3.0247  -27.8635   -9.5709 H   0  0  0  0  0  0  0  0  0  0  0  0
   14.5376  -28.8665  -11.3402 H   0  0  0  0  0  0  0  0  0  0  0  0
   14.5907  -24.2941   -9.4179 H   0  0  0  0  0  0  0  0  0  0  0  0
    6.8319  -25.9741   -8.9984 H   0  0  0  0  0  0  0  0  0  0  0  0
    4.1056  -30.0854   -9.5246 H   0  0  0  0  0  0  0  0  0  0  0  0
   12.3550  -27.4649  -12.8169 H   0  0  0  0  0  0  0  0  0  0  0  0
   12.0508  -28.6485  -11.5329 H   0  0  0  0  0  0  0  0  0  0  0  0
   11.7977  -24.7233   -9.5619 H   0  0  0  0  0  0  0  0  0  0  0  0
   12.5171  -23.8875  -10.9622 H   0  0  0  0  0  0  0  0  0  0  0  0
    8.4796  -29.8261   -7.4530 H   0  0  0  0  0  0  0  0  0  0  0  0
    9.8483  -29.7938   -8.5677 H   0  0  0  0  0  0  0  0  0  0  0  0
    8.2753  -30.5325  -10.4388 H   0  0  0  0  0  0  0  0  0  0  0  0
    8.3169  -31.6701   -9.0936 H   0  0  0  0  0  0  0  0  0  0  0  0
    8.6708  -27.5538   -8.0736 H   0  0  0  0  0  0  0  0  0  0  0  0
   10.1064  -27.1201  -12.1141 H   0  0  0  0  0  0  0  0  0  0  0  0
    8.1939  -22.4089  -10.0883 H   0  0  0  0  0  0  0  0  0  0  0  0
    7.1627  -23.8279  -10.3529 H   0  0  0  0  0  0  0  0  0  0  0  0
    7.6797  -23.4077   -8.7153 H   0  0  0  0  0  0  0  0  0  0  0  0
    9.0444  -25.3178   -9.6105 H   0  0  0  0  0  0  0  0  0  0  0  0
   10.0707  -23.8858   -9.3599 H   0  0  0  0  0  0  0  0  0  0  0  0
    8.6253  -27.9052  -10.9695 H   0  0  0  0  0  0  0  0  0  0  0  0
  1  2  1  0  0  0  0
  1  5  2  0  0  0  0
  2  6  2  0  0  0  0
  3  4  2  0  0  0  0
  3  7  1  0  0  0  0
  4  8  1  0  0  0  0
  5  9  1  0  0  0  0
  6 10  1  0  0  0  0
  7 11  2  0  0  0  0
  8 12  2  0  0  0  0
  9 10  2  0  0  0  0
  9 14  1  0  0  0  0
 10 15  1  0  0  0  0
 11 12  1  0  0  0  0
 11 18  1  0  0  0  0
 12 27  1  0  0  0  0
 13 19  1  0  0  0  0
 13 23  1  0  0  0  0
 13 24  2  0  0  0  0
 14 19  1  0  0  0  0
 15 22  1  0  0  0  0
 16 17  1  0  0  0  0
 16 18  1  0  0  0  0
 17 27  1  0  0  0  0
 18 23  1  0  0  0  0
 19 22  1  0  0  0  0
 20 21  1  0  0  0  0
 21 28  1  0  0  0  0
 22 28  1  0  0  0  0
 25 28  2  0  0  0  0
 26 28  2  0  0  0  0
  1 29  1  0  0  0  0
  2 30  1  0  0  0  0
  3 31  1  0  0  0  0
  4 32  1  0  0  0  0
  5 33  1  0  0  0  0
  6 34  1  0  0  0  0
  7 35  1  0  0  0  0
  8 36  1  0  0  0  0
 14 37  1  0  0  0  0
 14 38  1  0  0  0  0
 15 39  1  0  0  0  0
 15 40  1  0  0  0  0
 16 41  1  0  0  0  0
 16 42  1  0  0  0  0
 17 43  1  0  0  0  0
 17 44  1  0  0  0  0
 18 45  1  0  0  0  0
 19 46  1  0  0  0  0
 20 47  1  0  0  0  0
 20 48  1  0  0  0  0
 20 49  1  0  0  0  0
 21 50  1  0  0  0  0
 21 51  1  0  0  0  0
 23 52  1  0  0  0  0
M  END
> <Hybrid2>
-2.462049961090088

> <Hybrid2>
-2.157333

$$$$
C39861471
  -OEChem-02152218483D

 43 46  0     0  0  0  0  0  0999 V2000
    6.8097  -30.3586   -8.3339 C   0  0  0  0  0  0  0  0  0  0  0  0
    5.4862  -30.5720   -7.9103 C   0  0  0  0  0  0  0  0  0  0  0  0
    7.1809  -29.1595   -8.9484 C   0  0  0  0  0  0  0  0  0  0  0  0
    4.5091  -29.5905   -8.0932 C   0  0  0  0  0  0  0  0  0  0  0  0
   11.5645  -26.9634  -10.2517 C   0  0  0  0  0  0  0  0  0  0  0  0
   11.5732  -25.5132  -12.1840 C   0  0  0  0  0  0  0  0  0  0  0  0
   12.9208  -27.2268  -10.4432 C   0  0  0  0  0  0  0  0  0  0  0  0
   12.9295  -25.7765  -12.3755 C   0  0  0  0  0  0  0  0  0  0  0  0
    6.2075  -28.1926   -9.1258 C   0  0  0  0  0  0  0  0  0  0  0  0
   10.8906  -26.1067  -11.1221 C   0  0  0  0  0  0  0  0  0  0  0  0
    4.8901  -28.4072   -8.7033 C   0  0  0  0  0  0  0  0  0  0  0  0
   13.6033  -26.6333  -11.5051 C   0  0  0  0  0  0  0  0  0  0  0  0
    6.2318  -26.8576   -9.7129 C   0  0  0  0  0  0  0  0  0  0  0  0
    7.2636  -26.2071  -10.2538 C   0  0  0  0  0  0  0  0  0  0  0  0
    4.8517  -26.2754   -9.6214 C   0  0  0  0  0  0  0  0  0  0  0  0
    8.6293  -26.7783  -10.3464 C   0  0  0  0  0  0  0  0  0  0  0  0
    8.9209  -24.6175  -11.2964 C   0  0  0  0  0  0  0  0  0  0  0  0
   15.7975  -27.7214  -10.9344 C   0  0  0  0  0  0  0  0  0  0  0  0
   17.2060  -27.7393  -11.4733 C   0  0  0  0  0  0  0  0  0  0  0  0
    2.6917  -27.1921   -8.6828 C   0  0  0  0  0  0  0  0  0  0  0  0
    9.4908  -25.8351  -10.9248 N   0  0  0  0  0  0  0  0  0  0  0  0
    4.0979  -27.2777   -8.9969 N   0  0  0  0  0  0  0  0  0  0  0  0
   14.9599  -26.8964  -11.6970 N   0  0  0  0  0  0  0  0  0  0  0  0
    4.5087  -25.1749  -10.0148 O   0  0  0  0  0  0  0  0  0  0  0  0
    8.8690  -27.9284  -10.0012 O   0  0  0  0  0  0  0  0  0  0  0  0
    9.4462  -23.6118  -11.7496 O   0  0  0  0  0  0  0  0  0  0  0  0
   15.4955  -28.3795   -9.9441 O   0  0  0  0  0  0  0  0  0  0  0  0
    7.1966  -24.6407  -10.9373 S   0  0  0  0  0  0  0  0  0  0  0  0
    7.5524  -31.1371   -8.1806 H   0  0  0  0  0  0  0  0  0  0  0  0
    5.2219  -31.5128   -7.4347 H   0  0  0  0  0  0  0  0  0  0  0  0
    8.2046  -29.0048   -9.2715 H   0  0  0  0  0  0  0  0  0  0  0  0
    3.4915  -29.7656   -7.7627 H   0  0  0  0  0  0  0  0  0  0  0  0
   11.0431  -27.4317   -9.4208 H   0  0  0  0  0  0  0  0  0  0  0  0
   11.0580  -24.8437  -12.8681 H   0  0  0  0  0  0  0  0  0  0  0  0
   13.4352  -27.8966   -9.7587 H   0  0  0  0  0  0  0  0  0  0  0  0
   13.4510  -25.3092  -13.2066 H   0  0  0  0  0  0  0  0  0  0  0  0
   17.7919  -26.9439  -11.0041 H   0  0  0  0  0  0  0  0  0  0  0  0
   17.1906  -27.5773  -12.5548 H   0  0  0  0  0  0  0  0  0  0  0  0
   17.6720  -28.7075  -11.2678 H   0  0  0  0  0  0  0  0  0  0  0  0
    2.5655  -26.7670   -7.6761 H   0  0  0  0  0  0  0  0  0  0  0  0
    2.1904  -26.5463   -9.4188 H   0  0  0  0  0  0  0  0  0  0  0  0
    2.2471  -28.1978   -8.7144 H   0  0  0  0  0  0  0  0  0  0  0  0
   15.4060  -26.4308  -12.4958 H   0  0  0  0  0  0  0  0  0  0  0  0
  1  2  1  0  0  0  0
  1  3  2  0  0  0  0
  2  4  2  0  0  0  0
  3  9  1  0  0  0  0
  4 11  1  0  0  0  0
  5  7  2  0  0  0  0
  5 10  1  0  0  0  0
  6  8  1  0  0  0  0
  6 10  2  0  0  0  0
  7 12  1  0  0  0  0
  8 12  2  0  0  0  0
  9 11  2  0  0  0  0
  9 13  1  0  0  0  0
 10 21  1  0  0  0  0
 11 22  1  0  0  0  0
 12 23  1  0  0  0  0
 13 14  2  0  0  0  0
 13 15  1  0  0  0  0
 14 16  1  0  0  0  0
 14 28  1  0  0  0  0
 15 22  1  0  0  0  0
 15 24  2  0  0  0  0
 16 21  1  0  0  0  0
 16 25  2  0  0  0  0
 17 21  1  0  0  0  0
 17 26  2  0  0  0  0
 17 28  1  0  0  0  0
 18 19  1  0  0  0  0
 18 23  1  0  0  0  0
 18 27  2  0  0  0  0
 20 22  1  0  0  0  0
  1 29  1  0  0  0  0
  2 30  1  0  0  0  0
  3 31  1  0  0  0  0
  4 32  1  0  0  0  0
  5 33  1  0  0  0  0
  6 34  1  0  0  0  0
  7 35  1  0  0  0  0
  8 36  1  0  0  0  0
 19 37  1  0  0  0  0
 19 38  1  0  0  0  0
 19 39  1  0  0  0  0
 20 40  1  0  0  0  0
 20 41  1  0  0  0  0
 20 42  1  0  0  0  0
 23 43  1  0  0  0  0
M  END
> <Hybrid2>
-4.785307884216309

> <Hybrid2>
-4.785308

$$$$
C39861471
  -OEChem-02152218483D

 43 46  0     0  0  0  0  0  0999 V2000
    6.5020  -30.4198   -8.1629 C   0  0  0  0  0  0  0  0  0  0  0  0
    5.1786  -30.6331   -7.7393 C   0  0  0  0  0  0  0  0  0  0  0  0
    6.8733  -29.2207   -8.7774 C   0  0  0  0  0  0  0  0  0  0  0  0
    4.2015  -29.6517   -7.9222 C   0  0  0  0  0  0  0  0  0  0  0  0
   11.2569  -27.0246  -10.0807 C   0  0  0  0  0  0  0  0  0  0  0  0
   11.2655  -25.5743  -12.0130 C   0  0  0  0  0  0  0  0  0  0  0  0
   12.6132  -27.2880  -10.2722 C   0  0  0  0  0  0  0  0  0  0  0  0
   12.6219  -25.8376  -12.2045 C   0  0  0  0  0  0  0  0  0  0  0  0
    5.8999  -28.2538   -8.9548 C   0  0  0  0  0  0  0  0  0  0  0  0
   10.5830  -26.1679  -10.9511 C   0  0  0  0  0  0  0  0  0  0  0  0
    4.5825  -28.4684   -8.5323 C   0  0  0  0  0  0  0  0  0  0  0  0
   13.2957  -26.6945  -11.3341 C   0  0  0  0  0  0  0  0  0  0  0  0
    5.9241  -26.9188   -9.5419 C   0  0  0  0  0  0  0  0  0  0  0  0
    6.9560  -26.2683  -10.0828 C   0  0  0  0  0  0  0  0  0  0  0  0
    4.5440  -26.3366   -9.4504 C   0  0  0  0  0  0  0  0  0  0  0  0
    8.3216  -26.8395  -10.1754 C   0  0  0  0  0  0  0  0  0  0  0  0
    8.6132  -24.6787  -11.1253 C   0  0  0  0  0  0  0  0  0  0  0  0
   15.4899  -27.7826  -10.7634 C   0  0  0  0  0  0  0  0  0  0  0  0
   16.8984  -27.8004  -11.3022 C   0  0  0  0  0  0  0  0  0  0  0  0
    2.3840  -27.2533   -8.5118 C   0  0  0  0  0  0  0  0  0  0  0  0
    9.1832  -25.8963  -10.7538 N   0  0  0  0  0  0  0  0  0  0  0  0
    3.7903  -27.3389   -8.8258 N   0  0  0  0  0  0  0  0  0  0  0  0
   14.6523  -26.9576  -11.5260 N   0  0  0  0  0  0  0  0  0  0  0  0
    4.2011  -25.2361   -9.8438 O   0  0  0  0  0  0  0  0  0  0  0  0
    8.5614  -27.9895   -9.8302 O   0  0  0  0  0  0  0  0  0  0  0  0
    9.1386  -23.6729  -11.5786 O   0  0  0  0  0  0  0  0  0  0  0  0
   15.1879  -28.4406   -9.7731 O   0  0  0  0  0  0  0  0  0  0  0  0
    6.8890  -24.7019  -10.7663 S   0  0  0  0  0  0  0  0  0  0  0  0
    7.2448  -31.1983   -8.0096 H   0  0  0  0  0  0  0  0  0  0  0  0
    4.9142  -31.5740   -7.2637 H   0  0  0  0  0  0  0  0  0  0  0  0
    7.8969  -29.0660   -9.1005 H   0  0  0  0  0  0  0  0  0  0  0  0
    3.1839  -29.8267   -7.5917 H   0  0  0  0  0  0  0  0  0  0  0  0
   10.7355  -27.4928   -9.2498 H   0  0  0  0  0  0  0  0  0  0  0  0
   10.7504  -24.9049  -12.6971 H   0  0  0  0  0  0  0  0  0  0  0  0
   13.1276  -27.9578   -9.5876 H   0  0  0  0  0  0  0  0  0  0  0  0
   13.1434  -25.3703  -13.0356 H   0  0  0  0  0  0  0  0  0  0  0  0
   17.4843  -27.0050  -10.8331 H   0  0  0  0  0  0  0  0  0  0  0  0
   16.8830  -27.6385  -12.3838 H   0  0  0  0  0  0  0  0  0  0  0  0
   17.3644  -28.7686  -11.0968 H   0  0  0  0  0  0  0  0  0  0  0  0
    2.2578  -26.8282   -7.5051 H   0  0  0  0  0  0  0  0  0  0  0  0
    1.8827  -26.6075   -9.2478 H   0  0  0  0  0  0  0  0  0  0  0  0
    1.9395  -28.2590   -8.5434 H   0  0  0  0  0  0  0  0  0  0  0  0
   15.0984  -26.4920  -12.3248 H   0  0  0  0  0  0  0  0  0  0  0  0
  1  2  1  0  0  0  0
  1  3  2  0  0  0  0
  2  4  2  0  0  0  0
  3  9  1  0  0  0  0
  4 11  1  0  0  0  0
  5  7  2  0  0  0  0
  5 10  1  0  0  0  0
  6  8  1  0  0  0  0
  6 10  2  0  0  0  0
  7 12  1  0  0  0  0
  8 12  2  0  0  0  0
  9 11  2  0  0  0  0
  9 13  1  0  0  0  0
 10 21  1  0  0  0  0
 11 22  1  0  0  0  0
 12 23  1  0  0  0  0
 13 14  2  0  0  0  0
 13 15  1  0  0  0  0
 14 16  1  0  0  0  0
 14 28  1  0  0  0  0
 15 22  1  0  0  0  0
 15 24  2  0  0  0  0
 16 21  1  0  0  0  0
 16 25  2  0  0  0  0
 17 21  1  0  0  0  0
 17 26  2  0  0  0  0
 17 28  1  0  0  0  0
 18 19  1  0  0  0  0
 18 23  1  0  0  0  0
 18 27  2  0  0  0  0
 20 22  1  0  0  0  0
  1 29  1  0  0  0  0
  2 30  1  0  0  0  0
  3 31  1  0  0  0  0
  4 32  1  0  0  0  0
  5 33  1  0  0  0  0
  6 34  1  0  0  0  0
  7 35  1  0  0  0  0
  8 36  1  0  0  0  0
 19 37  1  0  0  0  0
 19 38  1  0  0  0  0
 19 39  1  0  0  0  0
 20 40  1  0  0  0  0
 20 41  1  0  0  0  0
 20 42  1  0  0  0  0
 23 43  1  0  0  0  0
M  END
> <Hybrid2>
-4.785307884216309

> <Hybrid2>
-4.756094

$$$$
C22941724
  -OEChem-02152218483D

 53 56  0     1  0  0  0  0  0999 V2000
   12.0281  -26.1456  -11.4200 C   0  0  0  0  0  0  0  0  0  0  0  0
   10.6174  -27.1991  -13.5786 C   0  0  0  0  0  0  0  0  0  0  0  0
   10.6488  -26.3724  -11.2920 C   0  0  0  0  0  0  0  0  0  0  0  0
   11.9902  -26.9857  -13.6838 C   0  0  0  0  0  0  0  0  0  0  0  0
    9.9460  -26.8767  -12.3955 C   0  0  0  0  0  0  0  0  0  0  0  0
   12.6944  -26.4534  -12.6073 C   0  0  0  0  0  0  0  0  0  0  0  0
    7.2378  -24.6527   -9.5058 C   0  0  0  0  0  0  0  0  0  0  0  0
    8.4443  -25.7463   -7.7318 C   0  0  0  0  0  0  0  0  0  0  0  0
    6.1799  -28.5156   -9.0195 C   0  0  0  0  0  0  0  0  0  0  0  0
    7.3898  -30.1841  -10.2676 C   0  0  0  0  0  0  0  0  0  0  0  0
    6.3984  -23.9340   -8.4534 C   0  0  0  0  0  0  0  0  0  0  0  0
    7.5756  -25.0027   -6.7213 C   0  0  0  0  0  0  0  0  0  0  0  0
    6.3039  -29.3949   -7.7770 C   0  0  0  0  0  0  0  0  0  0  0  0
    7.4866  -31.0250   -8.9964 C   0  0  0  0  0  0  0  0  0  0  0  0
    7.8786  -26.4425  -11.3511 C   0  0  0  0  0  0  0  0  0  0  0  0
    9.9326  -26.0358  -10.0042 C   0  0  1  0  0  0  0  0  0  0  0  0
    8.5130  -26.6478   -9.9684 C   0  0  2  0  0  0  0  0  0  0  0  0
   12.6617  -27.3383  -14.9717 C   0  0  0  0  0  0  0  0  0  0  0  0
    8.5159  -28.1390   -9.5842 C   0  0  0  0  0  0  0  0  0  0  0  0
    7.6958  -25.9465   -8.9804 N   0  0  0  0  0  0  0  0  0  0  0  0
    7.2528  -28.7463   -9.9968 N   0  0  0  0  0  0  0  0  0  0  0  0
    8.5966  -27.1210  -12.3871 O   0  0  0  0  0  0  0  0  0  0  0  0
    7.1544  -23.7474   -7.2563 O   0  0  0  0  0  0  0  0  0  0  0  0
    6.3668  -30.7724   -8.1474 O   0  0  0  0  0  0  0  0  0  0  0  0
   10.7032  -26.4771   -8.8896 O   0  0  0  0  0  0  0  0  0  0  0  0
   14.5609  -26.1300  -12.7056 Br  0  0  0  0  0  0  0  0  0  0  0  0
   12.5804  -25.7270  -10.5810 H   0  0  0  0  0  0  0  0  0  0  0  0
   10.0627  -27.6090  -14.4198 H   0  0  0  0  0  0  0  0  0  0  0  0
    6.6302  -24.8008  -10.4069 H   0  0  0  0  0  0  0  0  0  0  0  0
    8.0981  -24.0255   -9.7772 H   0  0  0  0  0  0  0  0  0  0  0  0
    9.3587  -25.1680   -7.9234 H   0  0  0  0  0  0  0  0  0  0  0  0
    8.7388  -26.7126   -7.3045 H   0  0  0  0  0  0  0  0  0  0  0  0
    5.1992  -28.7092   -9.4901 H   0  0  0  0  0  0  0  0  0  0  0  0
    6.1818  -27.4533   -8.7092 H   0  0  0  0  0  0  0  0  0  0  0  0
    8.2902  -30.3623  -10.8861 H   0  0  0  0  0  0  0  0  0  0  0  0
    6.5233  -30.5371  -10.8553 H   0  0  0  0  0  0  0  0  0  0  0  0
    6.1077  -22.9448   -8.8217 H   0  0  0  0  0  0  0  0  0  0  0  0
    5.4791  -24.4862   -8.2238 H   0  0  0  0  0  0  0  0  0  0  0  0
    6.6960  -25.5908   -6.4321 H   0  0  0  0  0  0  0  0  0  0  0  0
    8.1511  -24.8002   -5.8124 H   0  0  0  0  0  0  0  0  0  0  0  0
    7.2262  -29.1511   -7.2403 H   0  0  0  0  0  0  0  0  0  0  0  0
    5.4663  -29.2386   -7.0869 H   0  0  0  0  0  0  0  0  0  0  0  0
    7.5401  -32.0968   -9.2229 H   0  0  0  0  0  0  0  0  0  0  0  0
    8.3916  -30.7585   -8.4416 H   0  0  0  0  0  0  0  0  0  0  0  0
    6.8542  -26.8353  -11.3679 H   0  0  0  0  0  0  0  0  0  0  0  0
    7.8104  -25.3780  -11.6153 H   0  0  0  0  0  0  0  0  0  0  0  0
    9.8769  -24.9393   -9.9573 H   0  0  0  0  0  0  0  0  0  0  0  0
   12.6572  -26.4772  -15.6493 H   0  0  0  0  0  0  0  0  0  0  0  0
   13.7004  -27.6472  -14.8043 H   0  0  0  0  0  0  0  0  0  0  0  0
   12.1543  -28.1758  -15.4656 H   0  0  0  0  0  0  0  0  0  0  0  0
    9.3556  -28.5906  -10.1019 H   0  0  0  0  0  0  0  0  0  0  0  0
    8.6377  -28.1811   -8.5070 H   0  0  0  0  0  0  0  0  0  0  0  0
   11.5531  -26.0129   -8.9403 H   0  0  0  0  0  0  0  0  0  0  0  0
  1  3  2  0  0  0  0
  1  6  1  0  0  0  0
  2  4  1  0  0  0  0
  2  5  2  0  0  0  0
  3  5  1  0  0  0  0
  3 16  1  0  0  0  0
  4  6  2  0  0  0  0
  4 18  1  0  0  0  0
  5 22  1  0  0  0  0
  6 26  1  0  0  0  0
  7 11  1  0  0  0  0
  7 20  1  0  0  0  0
  8 12  1  0  0  0  0
  8 20  1  0  0  0  0
  9 13  1  0  0  0  0
  9 21  1  0  0  0  0
 10 14  1  0  0  0  0
 10 21  1  0  0  0  0
 11 23  1  0  0  0  0
 12 23  1  0  0  0  0
 13 24  1  0  0  0  0
 14 24  1  0  0  0  0
 15 17  1  0  0  0  0
 15 22  1  0  0  0  0
 16 17  1  0  0  0  0
 16 25  1  0  0  0  0
 17 19  1  0  0  0  0
 17 20  1  0  0  0  0
 19 21  1  0  0  0  0
  1 27  1  0  0  0  0
  2 28  1  0  0  0  0
  7 29  1  0  0  0  0
  7 30  1  0  0  0  0
  8 31  1  0  0  0  0
  8 32  1  0  0  0  0
  9 33  1  0  0  0  0
  9 34  1  0  0  0  0
 10 35  1  0  0  0  0
 10 36  1  0  0  0  0
 11 37  1  0  0  0  0
 11 38  1  0  0  0  0
 12 39  1  0  0  0  0
 12 40  1  0  0  0  0
 13 41  1  0  0  0  0
 13 42  1  0  0  0  0
 14 43  1  0  0  0  0
 14 44  1  0  0  0  0
 15 45  1  0  0  0  0
 15 46  1  0  0  0  0
 16 47  1  0  0  0  0
 18 48  1  0  0  0  0
 18 49  1  0  0  0  0
 18 50  1  0  0  0  0
 19 51  1  0  0  0  0
 19 52  1  0  0  0  0
 25 53  1  0  0  0  0
M  END
> <Hybrid2>
-2.6332273483276367

> <Hybrid2>
-2.633227

$$$$
C22941724
  -OEChem-02152218483D

 53 56  0     1  0  0  0  0  0999 V2000
   12.1184  -25.2614  -11.6598 C   0  0  0  0  0  0  0  0  0  0  0  0
   11.3904  -27.4985  -13.1514 C   0  0  0  0  0  0  0  0  0  0  0  0
   10.7841  -25.6965  -11.6355 C   0  0  0  0  0  0  0  0  0  0  0  0
   12.7146  -27.0655  -13.1505 C   0  0  0  0  0  0  0  0  0  0  0  0
   10.4256  -26.8069  -12.4129 C   0  0  0  0  0  0  0  0  0  0  0  0
   13.0775  -25.9438  -12.4100 C   0  0  0  0  0  0  0  0  0  0  0  0
    6.8711  -24.1305  -11.5006 C   0  0  0  0  0  0  0  0  0  0  0  0
    7.7435  -23.9484   -9.2636 C   0  0  0  0  0  0  0  0  0  0  0  0
    6.2017  -27.3862   -9.2513 C   0  0  0  0  0  0  0  0  0  0  0  0
    7.8523  -29.1394   -9.2305 C   0  0  0  0  0  0  0  0  0  0  0  0
    5.7288  -23.2010  -11.1003 C   0  0  0  0  0  0  0  0  0  0  0  0
    6.5801  -23.0242   -8.9157 C   0  0  0  0  0  0  0  0  0  0  0  0
    5.1245  -28.4420   -9.4830 C   0  0  0  0  0  0  0  0  0  0  0  0
    6.7363  -30.1538   -9.4639 C   0  0  0  0  0  0  0  0  0  0  0  0
    8.1339  -26.3933  -12.0518 C   0  0  0  0  0  0  0  0  0  0  0  0
    9.7497  -24.9526  -10.8221 C   0  0  1  0  0  0  0  0  0  0  0  0
    8.4432  -25.7683  -10.6843 C   0  0  2  0  0  0  0  0  0  0  0  0
   13.7077  -27.8328  -13.9622 C   0  0  0  0  0  0  0  0  0  0  0  0
    8.5293  -26.8527   -9.5944 C   0  0  0  0  0  0  0  0  0  0  0  0
    7.3398  -24.8794  -10.3263 N   0  0  0  0  0  0  0  0  0  0  0  0
    7.4789  -27.8443   -9.8157 N   0  0  0  0  0  0  0  0  0  0  0  0
    9.1505  -27.3074  -12.4765 O   0  0  0  0  0  0  0  0  0  0  0  0
    6.1536  -22.3045  -10.0730 O   0  0  0  0  0  0  0  0  0  0  0  0
    5.5122  -29.6853   -8.8970 O   0  0  0  0  0  0  0  0  0  0  0  0
   10.2813  -24.6263   -9.5408 O   0  0  0  0  0  0  0  0  0  0  0  0
   14.8636  -25.3053  -12.3881 Br  0  0  0  0  0  0  0  0  0  0  0  0
   12.4042  -24.3833  -11.0841 H   0  0  0  0  0  0  0  0  0  0  0  0
   11.1018  -28.3709  -13.7337 H   0  0  0  0  0  0  0  0  0  0  0  0
    6.5150  -24.8204  -12.2755 H   0  0  0  0  0  0  0  0  0  0  0  0
    7.6918  -23.5373  -11.9269 H   0  0  0  0  0  0  0  0  0  0  0  0
    8.6034  -23.3469   -9.5894 H   0  0  0  0  0  0  0  0  0  0  0  0
    8.0395  -24.5016   -8.3639 H   0  0  0  0  0  0  0  0  0  0  0  0
    5.8926  -26.4555   -9.7305 H   0  0  0  0  0  0  0  0  0  0  0  0
    6.3091  -27.2095   -8.1778 H   0  0  0  0  0  0  0  0  0  0  0  0
    8.0227  -29.0299   -8.1562 H   0  0  0  0  0  0  0  0  0  0  0  0
    8.7677  -29.5107   -9.6948 H   0  0  0  0  0  0  0  0  0  0  0  0
    5.4200  -22.5993  -11.9611 H   0  0  0  0  0  0  0  0  0  0  0  0
    4.8522  -23.7632  -10.7563 H   0  0  0  0  0  0  0  0  0  0  0  0
    5.7319  -23.5798   -8.4972 H   0  0  0  0  0  0  0  0  0  0  0  0
    6.8970  -22.2914   -8.1667 H   0  0  0  0  0  0  0  0  0  0  0  0
    4.1883  -28.1281   -9.0101 H   0  0  0  0  0  0  0  0  0  0  0  0
    4.9244  -28.5873  -10.5515 H   0  0  0  0  0  0  0  0  0  0  0  0
    6.5905  -30.3579  -10.5318 H   0  0  0  0  0  0  0  0  0  0  0  0
    6.9864  -31.1019   -8.9774 H   0  0  0  0  0  0  0  0  0  0  0  0
    7.1955  -26.9606  -12.0133 H   0  0  0  0  0  0  0  0  0  0  0  0
    8.0063  -25.6289  -12.8309 H   0  0  0  0  0  0  0  0  0  0  0  0
    9.5570  -24.0097  -11.3526 H   0  0  0  0  0  0  0  0  0  0  0  0
   13.7629  -27.4248  -14.9777 H   0  0  0  0  0  0  0  0  0  0  0  0
   14.7063  -27.7873  -13.5114 H   0  0  0  0  0  0  0  0  0  0  0  0
   13.4326  -28.8926  -14.0246 H   0  0  0  0  0  0  0  0  0  0  0  0
    9.5144  -27.2994   -9.6791 H   0  0  0  0  0  0  0  0  0  0  0  0
    8.3974  -26.3472   -8.6435 H   0  0  0  0  0  0  0  0  0  0  0  0
   11.0591  -24.0689   -9.6983 H   0  0  0  0  0  0  0  0  0  0  0  0
  1  3  2  0  0  0  0
  1  6  1  0  0  0  0
  2  4  1  0  0  0  0
  2  5  2  0  0  0  0
  3  5  1  0  0  0  0
  3 16  1  0  0  0  0
  4  6  2  0  0  0  0
  4 18  1  0  0  0  0
  5 22  1  0  0  0  0
  6 26  1  0  0  0  0
  7 11  1  0  0  0  0
  7 20  1  0  0  0  0
  8 12  1  0  0  0  0
  8 20  1  0  0  0  0
  9 13  1  0  0  0  0
  9 21  1  0  0  0  0
 10 14  1  0  0  0  0
 10 21  1  0  0  0  0
 11 23  1  0  0  0  0
 12 23  1  0  0  0  0
 13 24  1  0  0  0  0
 14 24  1  0  0  0  0
 15 17  1  0  0  0  0
 15 22  1  0  0  0  0
 16 17  1  0  0  0  0
 16 25  1  0  0  0  0
 17 19  1  0  0  0  0
 17 20  1  0  0  0  0
 19 21  1  0  0  0  0
  1 27  1  0  0  0  0
  2 28  1  0  0  0  0
  7 29  1  0  0  0  0
  7 30  1  0  0  0  0
  8 31  1  0  0  0  0
  8 32  1  0  0  0  0
  9 33  1  0  0  0  0
  9 34  1  0  0  0  0
 10 35  1  0  0  0  0
 10 36  1  0  0  0  0
 11 37  1  0  0  0  0
 11 38  1  0  0  0  0
 12 39  1  0  0  0  0
 12 40  1  0  0  0  0
 13 41  1  0  0  0  0
 13 42  1  0  0  0  0
 14 43  1  0  0  0  0
 14 44  1  0  0  0  0
 15 45  1  0  0  0  0
 15 46  1  0  0  0  0
 16 47  1  0  0  0  0
 18 48  1  0  0  0  0
 18 49  1  0  0  0  0
 18 50  1  0  0  0  0
 19 51  1  0  0  0  0
 19 52  1  0  0  0  0
 25 53  1  0  0  0  0
M  END
> <Hybrid2>
-2.6332273483276367

> <Hybrid2>
-2.597843

$$$$
C40380508
  -OEChem-02152218483D

 35 39  0     1  0  0  0  0  0999 V2000
    8.4809  -28.4379   -8.9015 C   0  0  0  0  0  0  0  0  0  0  0  0
   11.1026  -26.3303  -10.6327 C   0  0  0  0  0  0  0  0  0  0  0  0
    5.6962  -27.9149   -8.7238 C   0  0  0  0  0  0  0  0  0  0  0  0
    9.0378  -26.2087  -11.8067 C   0  0  0  0  0  0  0  0  0  0  0  0
   10.9742  -26.5378  -12.9984 C   0  0  0  0  0  0  0  0  0  0  0  0
    8.0023  -27.1248   -9.0473 C   0  0  0  0  0  0  0  0  0  0  0  0
    9.7215  -26.1725  -10.6021 C   0  0  0  0  0  0  0  0  0  0  0  0
    6.5946  -26.8615   -8.9436 C   0  0  0  0  0  0  0  0  0  0  0  0
    7.5605  -29.4424   -8.6836 C   0  0  0  0  0  0  0  0  0  0  0  0
    6.2108  -29.1894   -8.6005 C   0  0  0  0  0  0  0  0  0  0  0  0
   11.7487  -26.5168  -11.8497 C   0  0  0  0  0  0  0  0  0  0  0  0
    8.3021  -24.6418   -9.3048 C   0  0  0  0  0  0  0  0  0  0  0  0
    6.9846  -24.4962   -9.1900 C   0  0  0  0  0  0  0  0  0  0  0  0
    8.8697  -23.2987   -9.4014 C   0  0  0  0  0  0  0  0  0  0  0  0
    6.5896  -23.0807   -9.2231 C   0  0  0  0  0  0  0  0  0  0  0  0
    6.5300  -31.3139   -8.3369 C   0  0  0  0  0  0  0  0  0  0  0  0
    8.9945  -25.9706   -9.3075 C   0  0  1  0  0  0  0  0  0  0  0  0
    9.6306  -26.3879  -13.0083 N   0  0  0  0  0  0  0  0  0  0  0  0
    6.1179  -25.5379   -9.0437 N   0  0  0  0  0  0  0  0  0  0  0  0
   10.0538  -23.0297   -9.5012 O   0  0  0  0  0  0  0  0  0  0  0  0
    7.8492  -30.7639   -8.5278 O   0  0  0  0  0  0  0  0  0  0  0  0
    5.4856  -30.3209   -8.3819 O   0  0  0  0  0  0  0  0  0  0  0  0
    7.8443  -22.3923   -9.3573 O   0  0  0  0  0  0  0  0  0  0  0  0
   13.6174  -26.7317  -11.9328 Br  0  0  0  0  0  0  0  0  0  0  0  0
    9.5409  -28.6614   -8.9615 H   0  0  0  0  0  0  0  0  0  0  0  0
   11.6685  -26.3071   -9.7043 H   0  0  0  0  0  0  0  0  0  0  0  0
    4.6288  -27.7368   -8.6433 H   0  0  0  0  0  0  0  0  0  0  0  0
    7.9591  -26.0916  -11.8452 H   0  0  0  0  0  0  0  0  0  0  0  0
   11.4168  -26.6781  -13.9801 H   0  0  0  0  0  0  0  0  0  0  0  0
    5.9576  -22.8401  -10.0827 H   0  0  0  0  0  0  0  0  0  0  0  0
    6.1046  -22.7571   -8.2978 H   0  0  0  0  0  0  0  0  0  0  0  0
    6.3425  -32.0563   -9.1211 H   0  0  0  0  0  0  0  0  0  0  0  0
    6.4965  -31.8140   -7.3621 H   0  0  0  0  0  0  0  0  0  0  0  0
    9.7308  -25.9776   -8.4943 H   0  0  0  0  0  0  0  0  0  0  0  0
    5.1276  -25.3502   -8.9660 H   0  0  0  0  0  0  0  0  0  0  0  0
  1  6  1  0  0  0  0
  1  9  2  0  0  0  0
  2  7  1  0  0  0  0
  2 11  2  0  0  0  0
  3  8  1  0  0  0  0
  3 10  2  0  0  0  0
  4  7  2  0  0  0  0
  4 18  1  0  0  0  0
  5 11  1  0  0  0  0
  5 18  2  0  0  0  0
  6  8  2  0  0  0  0
  6 17  1  0  0  0  0
  7 17  1  0  0  0  0
  8 19  1  0  0  0  0
  9 10  1  0  0  0  0
  9 21  1  0  0  0  0
 10 22  1  0  0  0  0
 11 24  1  0  0  0  0
 12 13  2  0  0  0  0
 12 14  1  0  0  0  0
 12 17  1  0  0  0  0
 13 15  1  0  0  0  0
 13 19  1  0  0  0  0
 14 20  2  0  0  0  0
 14 23  1  0  0  0  0
 15 23  1  0  0  0  0
 16 21  1  0  0  0  0
 16 22  1  0  0  0  0
  1 25  1  0  0  0  0
  2 26  1  0  0  0  0
  3 27  1  0  0  0  0
  4 28  1  0  0  0  0
  5 29  1  0  0  0  0
 15 30  1  0  0  0  0
 15 31  1  0  0  0  0
 16 32  1  0  0  0  0
 16 33  1  0  0  0  0
 17 34  1  0  0  0  0
 19 35  1  0  0  0  0
M  END
> <Hybrid2>
-7.839205741882324

> <Hybrid2>
-7.839206

$$$$
C40380508
  -OEChem-02152218483D

 35 39  0     1  0  0  0  0  0999 V2000
    8.2905  -23.6811  -10.8755 C   0  0  0  0  0  0  0  0  0  0  0  0
   10.2320  -26.7608  -11.9044 C   0  0  0  0  0  0  0  0  0  0  0  0
    6.9311  -23.2453   -8.4216 C   0  0  0  0  0  0  0  0  0  0  0  0
   10.4502  -26.3900   -9.5653 C   0  0  0  0  0  0  0  0  0  0  0  0
   12.3289  -26.8898  -10.7897 C   0  0  0  0  0  0  0  0  0  0  0  0
    7.8744  -24.7759  -10.0993 C   0  0  0  0  0  0  0  0  0  0  0  0
    9.6367  -26.4586  -10.6847 C   0  0  0  0  0  0  0  0  0  0  0  0
    7.1751  -24.5525   -8.8651 C   0  0  0  0  0  0  0  0  0  0  0  0
    8.0263  -22.4127  -10.4009 C   0  0  0  0  0  0  0  0  0  0  0  0
    7.3701  -22.2016   -9.2104 C   0  0  0  0  0  0  0  0  0  0  0  0
   11.6033  -26.9820  -11.9665 C   0  0  0  0  0  0  0  0  0  0  0  0
    7.5290  -27.2316   -9.6841 C   0  0  0  0  0  0  0  0  0  0  0  0
    6.8869  -26.9255   -8.5598 C   0  0  0  0  0  0  0  0  0  0  0  0
    7.4585  -28.6838   -9.8301 C   0  0  0  0  0  0  0  0  0  0  0  0
    6.3747  -28.1256   -7.8829 C   0  0  0  0  0  0  0  0  0  0  0  0
    7.8461  -20.2793  -10.0840 C   0  0  0  0  0  0  0  0  0  0  0  0
    8.1618  -26.2137  -10.5835 C   0  0  1  0  0  0  0  0  0  0  0  0
   11.7858  -26.5986   -9.5864 N   0  0  0  0  0  0  0  0  0  0  0  0
    6.7165  -25.6507   -8.1085 N   0  0  0  0  0  0  0  0  0  0  0  0
    7.9221  -29.3319  -10.7518 O   0  0  0  0  0  0  0  0  0  0  0  0
    8.3637  -21.2473  -11.0189 O   0  0  0  0  0  0  0  0  0  0  0  0
    7.2145  -20.8774   -8.9341 O   0  0  0  0  0  0  0  0  0  0  0  0
    6.7794  -29.1935   -8.7558 O   0  0  0  0  0  0  0  0  0  0  0  0
   12.4460  -27.3960  -13.5985 Br  0  0  0  0  0  0  0  0  0  0  0  0
    8.8080  -23.8229  -11.8185 H   0  0  0  0  0  0  0  0  0  0  0  0
    9.6210  -26.8218  -12.8020 H   0  0  0  0  0  0  0  0  0  0  0  0
    6.4053  -23.0555   -7.4915 H   0  0  0  0  0  0  0  0  0  0  0  0
   10.0421  -26.1580   -8.5864 H   0  0  0  0  0  0  0  0  0  0  0  0
   13.4024  -27.0524  -10.7694 H   0  0  0  0  0  0  0  0  0  0  0  0
    6.8268  -28.2791   -6.8989 H   0  0  0  0  0  0  0  0  0  0  0  0
    5.2841  -28.1292   -7.8000 H   0  0  0  0  0  0  0  0  0  0  0  0
    8.6724  -19.6462   -9.7409 H   0  0  0  0  0  0  0  0  0  0  0  0
    7.1112  -19.6512  -10.6005 H   0  0  0  0  0  0  0  0  0  0  0  0
    7.7257  -26.3191  -11.5845 H   0  0  0  0  0  0  0  0  0  0  0  0
    6.2198  -25.4952   -7.2418 H   0  0  0  0  0  0  0  0  0  0  0  0
  1  6  1  0  0  0  0
  1  9  2  0  0  0  0
  2  7  1  0  0  0  0
  2 11  2  0  0  0  0
  3  8  1  0  0  0  0
  3 10  2  0  0  0  0
  4  7  2  0  0  0  0
  4 18  1  0  0  0  0
  5 11  1  0  0  0  0
  5 18  2  0  0  0  0
  6  8  2  0  0  0  0
  6 17  1  0  0  0  0
  7 17  1  0  0  0  0
  8 19  1  0  0  0  0
  9 10  1  0  0  0  0
  9 21  1  0  0  0  0
 10 22  1  0  0  0  0
 11 24  1  0  0  0  0
 12 13  2  0  0  0  0
 12 14  1  0  0  0  0
 12 17  1  0  0  0  0
 13 15  1  0  0  0  0
 13 19  1  0  0  0  0
 14 20  2  0  0  0  0
 14 23  1  0  0  0  0
 15 23  1  0  0  0  0
 16 21  1  0  0  0  0
 16 22  1  0  0  0  0
  1 25  1  0  0  0  0
  2 26  1  0  0  0  0
  3 27  1  0  0  0  0
  4 28  1  0  0  0  0
  5 29  1  0  0  0  0
 15 30  1  0  0  0  0
 15 31  1  0  0  0  0
 16 32  1  0  0  0  0
 16 33  1  0  0  0  0
 17 34  1  0  0  0  0
 19 35  1  0  0  0  0
M  END
> <Hybrid2>
-7.839205741882324

> <Hybrid2>
-6.459385

$$$$
C40433679
  -OEChem-02152218483D

 38 39  0     1  0  0  0  0  0999 V2000
    7.1333  -27.3831   -9.3555 C   0  0  0  0  0  0  0  0  0  0  0  0
    8.8647  -29.0513   -9.1176 C   0  0  0  0  0  0  0  0  0  0  0  0
    6.1610  -28.3786   -9.2604 C   0  0  0  0  0  0  0  0  0  0  0  0
    7.8924  -30.0469   -9.0225 C   0  0  0  0  0  0  0  0  0  0  0  0
    8.4852  -27.7194   -9.2842 C   0  0  0  0  0  0  0  0  0  0  0  0
    6.5405  -29.7105   -9.0938 C   0  0  0  0  0  0  0  0  0  0  0  0
   10.0059  -27.4913  -13.2886 C   0  0  0  0  0  0  0  0  0  0  0  0
   11.3603  -26.8984  -13.6760 C   0  0  0  0  0  0  0  0  0  0  0  0
    9.4096  -26.7782  -12.0812 C   0  0  0  0  0  0  0  0  0  0  0  0
   11.6649  -26.1549  -11.2684 C   0  0  0  0  0  0  0  0  0  0  0  0
   12.3172  -26.8079  -12.4862 C   0  0  1  0  0  0  0  0  0  0  0  0
   15.0307  -27.8620  -10.6774 C   0  0  0  0  0  0  0  0  0  0  0  0
   10.3734  -26.8346  -10.9445 N   0  0  1  0  0  0  0  0  0  0  0  0
   12.7973  -28.1691  -12.1255 N   0  0  0  0  0  0  0  0  0  0  0  0
    9.0383  -25.1840   -9.4821 O   0  0  0  0  0  0  0  0  0  0  0  0
   10.7176  -26.7150   -8.3942 O   0  0  0  0  0  0  0  0  0  0  0  0
   15.0612  -27.7161  -13.2905 O   0  0  0  0  0  0  0  0  0  0  0  0
   14.6316  -29.9459  -12.1951 O   0  0  0  0  0  0  0  0  0  0  0  0
    9.7159  -26.4601   -9.4067 S   0  0  0  0  0  0  0  0  0  0  0  0
   14.4606  -28.5062  -12.2336 S   0  0  0  0  0  0  0  0  0  0  0  0
    5.2232  -31.0595   -8.9652 Br  0  0  0  0  0  0  0  0  0  0  0  0
    6.8267  -26.3485   -9.4849 H   0  0  0  0  0  0  0  0  0  0  0  0
    9.9151  -29.3244   -9.0627 H   0  0  0  0  0  0  0  0  0  0  0  0
    5.1118  -28.1002   -9.3180 H   0  0  0  0  0  0  0  0  0  0  0  0
    8.2050  -31.0800   -8.8946 H   0  0  0  0  0  0  0  0  0  0  0  0
    9.3168  -27.4190  -14.1377 H   0  0  0  0  0  0  0  0  0  0  0  0
   10.1225  -28.5587  -13.0649 H   0  0  0  0  0  0  0  0  0  0  0  0
   11.8032  -27.4944  -14.4828 H   0  0  0  0  0  0  0  0  0  0  0  0
   11.1990  -25.8895  -14.0766 H   0  0  0  0  0  0  0  0  0  0  0  0
    9.1799  -25.7335  -12.3203 H   0  0  0  0  0  0  0  0  0  0  0  0
    8.4783  -27.2798  -11.7965 H   0  0  0  0  0  0  0  0  0  0  0  0
   12.3360  -26.2265  -10.4045 H   0  0  0  0  0  0  0  0  0  0  0  0
   11.4714  -25.0939  -11.4662 H   0  0  0  0  0  0  0  0  0  0  0  0
   13.2004  -26.2281  -12.7790 H   0  0  0  0  0  0  0  0  0  0  0  0
   16.1089  -28.0172  -10.6147 H   0  0  0  0  0  0  0  0  0  0  0  0
   14.7947  -26.7975  -10.6381 H   0  0  0  0  0  0  0  0  0  0  0  0
   14.5200  -28.3971   -9.8754 H   0  0  0  0  0  0  0  0  0  0  0  0
   12.2748  -28.5897  -11.3534 H   0  0  0  0  0  0  0  0  0  0  0  0
  1  3  2  0  0  0  0
  1  5  1  0  0  0  0
  2  4  1  0  0  0  0
  2  5  2  0  0  0  0
  3  6  1  0  0  0  0
  4  6  2  0  0  0  0
  5 19  1  0  0  0  0
  6 21  1  0  0  0  0
  7  8  1  0  0  0  0
  7  9  1  0  0  0  0
  8 11  1  0  0  0  0
  9 13  1  0  0  0  0
 10 11  1  0  0  0  0
 10 13  1  0  0  0  0
 11 14  1  0  0  0  0
 12 20  1  0  0  0  0
 13 19  1  0  0  0  0
 14 20  1  0  0  0  0
 15 19  2  0  0  0  0
 16 19  2  0  0  0  0
 17 20  2  0  0  0  0
 18 20  2  0  0  0  0
  1 22  1  0  0  0  0
  2 23  1  0  0  0  0
  3 24  1  0  0  0  0
  4 25  1  0  0  0  0
  7 26  1  0  0  0  0
  7 27  1  0  0  0  0
  8 28  1  0  0  0  0
  8 29  1  0  0  0  0
  9 30  1  0  0  0  0
  9 31  1  0  0  0  0
 10 32  1  0  0  0  0
 10 33  1  0  0  0  0
 11 34  1  0  0  0  0
 12 35  1  0  0  0  0
 12 36  1  0  0  0  0
 12 37  1  0  0  0  0
 14 38  1  0  0  0  0
M  END
> <Hybrid2>
-3.1784164905548096

> <Hybrid2>
-3.178416

$$$$
C40433679
  -OEChem-02152218483D

 38 39  0     1  0  0  0  0  0999 V2000
    9.6417  -27.1715   -8.9566 C   0  0  0  0  0  0  0  0  0  0  0  0
    7.9582  -26.6333  -10.6037 C   0  0  0  0  0  0  0  0  0  0  0  0
    8.9104  -28.2969   -8.5768 C   0  0  0  0  0  0  0  0  0  0  0  0
    7.2269  -27.7587  -10.2240 C   0  0  0  0  0  0  0  0  0  0  0  0
    9.1656  -26.3396   -9.9700 C   0  0  0  0  0  0  0  0  0  0  0  0
    7.7030  -28.5906   -9.2106 C   0  0  0  0  0  0  0  0  0  0  0  0
   11.3005  -26.4337  -13.9844 C   0  0  0  0  0  0  0  0  0  0  0  0
   12.4682  -27.3180  -13.5548 C   0  0  0  0  0  0  0  0  0  0  0  0
   10.3352  -26.1902  -12.8289 C   0  0  0  0  0  0  0  0  0  0  0  0
   12.1704  -26.4862  -11.1928 C   0  0  0  0  0  0  0  0  0  0  0  0
   13.1646  -26.7311  -12.3267 C   0  0  1  0  0  0  0  0  0  0  0  0
   16.5808  -26.6257  -12.5368 C   0  0  0  0  0  0  0  0  0  0  0  0
   11.0737  -25.5957  -11.6761 N   0  0  1  0  0  0  0  0  0  0  0  0
   14.2097  -27.6757  -11.8624 N   0  0  0  0  0  0  0  0  0  0  0  0
    9.1711  -23.9723  -11.0511 O   0  0  0  0  0  0  0  0  0  0  0  0
   10.9288  -24.5308   -9.3347 O   0  0  0  0  0  0  0  0  0  0  0  0
   16.2960  -28.1036  -10.3955 O   0  0  0  0  0  0  0  0  0  0  0  0
   15.2421  -25.8139  -10.4501 O   0  0  0  0  0  0  0  0  0  0  0  0
   10.0898  -24.9142  -10.4493 S   0  0  0  0  0  0  0  0  0  0  0  0
   15.6033  -27.0518  -11.1137 S   0  0  0  0  0  0  0  0  0  0  0  0
    6.7119  -30.1152   -8.6960 Br  0  0  0  0  0  0  0  0  0  0  0  0
   10.5813  -26.9521   -8.4564 H   0  0  0  0  0  0  0  0  0  0  0  0
    7.5773  -25.9909  -11.3931 H   0  0  0  0  0  0  0  0  0  0  0  0
    9.2950  -28.9350   -7.7852 H   0  0  0  0  0  0  0  0  0  0  0  0
    6.2872  -27.9723  -10.7268 H   0  0  0  0  0  0  0  0  0  0  0  0
   11.6805  -25.4756  -14.3549 H   0  0  0  0  0  0  0  0  0  0  0  0
   10.7656  -26.9072  -14.8157 H   0  0  0  0  0  0  0  0  0  0  0  0
   12.1106  -28.3263  -13.3514 H   0  0  0  0  0  0  0  0  0  0  0  0
   13.1856  -27.3753  -14.3741 H   0  0  0  0  0  0  0  0  0  0  0  0
    9.5242  -25.5187  -13.1346 H   0  0  0  0  0  0  0  0  0  0  0  0
    9.8948  -27.1469  -12.5268 H   0  0  0  0  0  0  0  0  0  0  0  0
   11.7444  -27.4364  -10.8608 H   0  0  0  0  0  0  0  0  0  0  0  0
   12.6723  -26.0112  -10.3456 H   0  0  0  0  0  0  0  0  0  0  0  0
   13.6561  -25.8028  -12.5939 H   0  0  0  0  0  0  0  0  0  0  0  0
   17.5259  -26.2036  -12.1915 H   0  0  0  0  0  0  0  0  0  0  0  0
   16.7565  -27.5323  -13.1178 H   0  0  0  0  0  0  0  0  0  0  0  0
   16.0281  -25.8937  -13.1274 H   0  0  0  0  0  0  0  0  0  0  0  0
   14.3201  -28.4877  -12.4743 H   0  0  0  0  0  0  0  0  0  0  0  0
  1  3  2  0  0  0  0
  1  5  1  0  0  0  0
  2  4  1  0  0  0  0
  2  5  2  0  0  0  0
  3  6  1  0  0  0  0
  4  6  2  0  0  0  0
  5 19  1  0  0  0  0
  6 21  1  0  0  0  0
  7  8  1  0  0  0  0
  7  9  1  0  0  0  0
  8 11  1  0  0  0  0
  9 13  1  0  0  0  0
 10 11  1  0  0  0  0
 10 13  1  0  0  0  0
 11 14  1  0  0  0  0
 12 20  1  0  0  0  0
 13 19  1  0  0  0  0
 14 20  1  0  0  0  0
 15 19  2  0  0  0  0
 16 19  2  0  0  0  0
 17 20  2  0  0  0  0
 18 20  2  0  0  0  0
  1 22  1  0  0  0  0
  2 23  1  0  0  0  0
  3 24  1  0  0  0  0
  4 25  1  0  0  0  0
  7 26  1  0  0  0  0
  7 27  1  0  0  0  0
  8 28  1  0  0  0  0
  8 29  1  0  0  0  0
  9 30  1  0  0  0  0
  9 31  1  0  0  0  0
 10 32  1  0  0  0  0
 10 33  1  0  0  0  0
 11 34  1  0  0  0  0
 12 35  1  0  0  0  0
 12 36  1  0  0  0  0
 12 37  1  0  0  0  0
 14 38  1  0  0  0  0
M  END
> <Hybrid2>
-3.1784164905548096

> <Hybrid2>
-2.762326

$$$$
C40450220
  -OEChem-02152218483D

 48 49  0     0  0  0  0  0  0999 V2000
    8.0552  -29.0330   -8.9525 C   0  0  0  0  0  0  0  0  0  0  0  0
    7.1645  -26.5753  -10.0193 C   0  0  0  0  0  0  0  0  0  0  0  0
    6.7142  -28.6814   -8.9206 C   0  0  0  0  0  0  0  0  0  0  0  0
    6.2693  -27.4670   -9.4467 C   0  0  0  0  0  0  0  0  0  0  0  0
    8.5189  -26.9222  -10.0558 C   0  0  0  0  0  0  0  0  0  0  0  0
    8.9618  -28.1421   -9.5262 C   0  0  0  0  0  0  0  0  0  0  0  0
    4.0905  -26.2822   -9.6941 C   0  0  0  0  0  0  0  0  0  0  0  0
   12.3963  -25.4055  -12.3477 C   0  0  0  0  0  0  0  0  0  0  0  0
    5.5882  -29.4846   -8.3569 C   0  0  0  0  0  0  0  0  0  0  0  0
    4.3811  -28.5771   -8.6170 C   0  0  0  0  0  0  0  0  0  0  0  0
    2.6157  -26.4252   -9.4001 C   0  0  0  0  0  0  0  0  0  0  0  0
   14.7978  -28.0217  -11.1108 C   0  0  0  0  0  0  0  0  0  0  0  0
   15.3704  -25.7858  -12.0914 C   0  0  0  0  0  0  0  0  0  0  0  0
   14.1150  -25.9235   -9.9249 C   0  0  0  0  0  0  0  0  0  0  0  0
   11.1035  -25.7012  -13.0910 C   0  0  0  0  0  0  0  0  0  0  0  0
   10.1277  -26.5551  -12.2987 C   0  0  0  0  0  0  0  0  0  0  0  0
   14.3250  -26.5753  -11.2966 C   0  0  0  0  0  0  0  0  0  0  0  0
    4.8721  -27.3554   -9.2887 N   0  0  0  0  0  0  0  0  0  0  0  0
   13.0765  -26.5706  -12.0237 N   0  0  0  0  0  0  0  0  0  0  0  0
    4.4971  -25.2638  -10.2536 O   0  0  0  0  0  0  0  0  0  0  0  0
   12.7650  -24.2695  -12.0624 O   0  0  0  0  0  0  0  0  0  0  0  0
    8.8591  -24.5827  -11.1261 O   0  0  0  0  0  0  0  0  0  0  0  0
   10.8039  -25.6634   -9.9447 O   0  0  0  0  0  0  0  0  0  0  0  0
    9.6237  -25.7710  -10.7865 S   0  0  0  0  0  0  0  0  0  0  0  0
   10.7920  -28.6491   -9.5572 Br  0  0  0  0  0  0  0  0  0  0  0  0
    8.3766  -29.9834   -8.5369 H   0  0  0  0  0  0  0  0  0  0  0  0
    6.8435  -25.6272  -10.4340 H   0  0  0  0  0  0  0  0  0  0  0  0
    5.4871  -30.4385   -8.8833 H   0  0  0  0  0  0  0  0  0  0  0  0
    5.7291  -29.6576   -7.2857 H   0  0  0  0  0  0  0  0  0  0  0  0
    3.6432  -29.0681   -9.2610 H   0  0  0  0  0  0  0  0  0  0  0  0
    3.8834  -28.2958   -7.6824 H   0  0  0  0  0  0  0  0  0  0  0  0
    2.4105  -26.0127   -8.4187 H   0  0  0  0  0  0  0  0  0  0  0  0
    2.3512  -27.4767   -9.4253 H   0  0  0  0  0  0  0  0  0  0  0  0
    2.0521  -25.8889  -10.1554 H   0  0  0  0  0  0  0  0  0  0  0  0
   14.0654  -28.6082  -10.5439 H   0  0  0  0  0  0  0  0  0  0  0  0
   14.9520  -28.5179  -12.0754 H   0  0  0  0  0  0  0  0  0  0  0  0
   15.7427  -28.0602  -10.5563 H   0  0  0  0  0  0  0  0  0  0  0  0
   15.0540  -24.7464  -12.2373 H   0  0  0  0  0  0  0  0  0  0  0  0
   15.5219  -26.2207  -13.0862 H   0  0  0  0  0  0  0  0  0  0  0  0
   16.3378  -25.7748  -11.5772 H   0  0  0  0  0  0  0  0  0  0  0  0
   13.7760  -24.8862  -10.0282 H   0  0  0  0  0  0  0  0  0  0  0  0
   13.3673  -26.4660   -9.3358 H   0  0  0  0  0  0  0  0  0  0  0  0
   15.0475  -25.9037   -9.3490 H   0  0  0  0  0  0  0  0  0  0  0  0
   10.6345  -24.7536  -13.3810 H   0  0  0  0  0  0  0  0  0  0  0  0
   11.3785  -26.2339  -14.0094 H   0  0  0  0  0  0  0  0  0  0  0  0
   10.5473  -27.5298  -12.0340 H   0  0  0  0  0  0  0  0  0  0  0  0
    9.2114  -26.7153  -12.8756 H   0  0  0  0  0  0  0  0  0  0  0  0
   12.6789  -27.4602  -12.3106 H   0  0  0  0  0  0  0  0  0  0  0  0
  1  3  2  0  0  0  0
  1  6  1  0  0  0  0
  2  4  2  0  0  0  0
  2  5  1  0  0  0  0
  3  4  1  0  0  0  0
  3  9  1  0  0  0  0
  4 18  1  0  0  0  0
  5  6  2  0  0  0  0
  5 24  1  0  0  0  0
  6 25  1  0  0  0  0
  7 11  1  0  0  0  0
  7 18  1  0  0  0  0
  7 20  2  0  0  0  0
  8 15  1  0  0  0  0
  8 19  1  0  0  0  0
  8 21  2  0  0  0  0
  9 10  1  0  0  0  0
 10 18  1  0  0  0  0
 12 17  1  0  0  0  0
 13 17  1  0  0  0  0
 14 17  1  0  0  0  0
 15 16  1  0  0  0  0
 16 24  1  0  0  0  0
 17 19  1  0  0  0  0
 22 24  2  0  0  0  0
 23 24  2  0  0  0  0
  1 26  1  0  0  0  0
  2 27  1  0  0  0  0
  9 28  1  0  0  0  0
  9 29  1  0  0  0  0
 10 30  1  0  0  0  0
 10 31  1  0  0  0  0
 11 32  1  0  0  0  0
 11 33  1  0  0  0  0
 11 34  1  0  0  0  0
 12 35  1  0  0  0  0
 12 36  1  0  0  0  0
 12 37  1  0  0  0  0
 13 38  1  0  0  0  0
 13 39  1  0  0  0  0
 13 40  1  0  0  0  0
 14 41  1  0  0  0  0
 14 42  1  0  0  0  0
 14 43  1  0  0  0  0
 15 44  1  0  0  0  0
 15 45  1  0  0  0  0
 16 46  1  0  0  0  0
 16 47  1  0  0  0  0
 19 48  1  0  0  0  0
M  END
> <Hybrid2>
-3.7125227451324463

> <Hybrid2>
-3.712523

$$$$
C40450220
  -OEChem-02152218483D

 48 49  0     0  0  0  0  0  0999 V2000
    8.0552  -29.0330   -8.9525 C   0  0  0  0  0  0  0  0  0  0  0  0
    7.1645  -26.5753  -10.0193 C   0  0  0  0  0  0  0  0  0  0  0  0
    6.7142  -28.6814   -8.9206 C   0  0  0  0  0  0  0  0  0  0  0  0
    6.2693  -27.4670   -9.4467 C   0  0  0  0  0  0  0  0  0  0  0  0
    8.5189  -26.9222  -10.0558 C   0  0  0  0  0  0  0  0  0  0  0  0
    8.9618  -28.1421   -9.5262 C   0  0  0  0  0  0  0  0  0  0  0  0
    4.0905  -26.2822   -9.6941 C   0  0  0  0  0  0  0  0  0  0  0  0
   12.3963  -25.4055  -12.3477 C   0  0  0  0  0  0  0  0  0  0  0  0
    5.5882  -29.4846   -8.3569 C   0  0  0  0  0  0  0  0  0  0  0  0
    4.3811  -28.5771   -8.6170 C   0  0  0  0  0  0  0  0  0  0  0  0
    2.6157  -26.4252   -9.4001 C   0  0  0  0  0  0  0  0  0  0  0  0
   14.7978  -28.0217  -11.1108 C   0  0  0  0  0  0  0  0  0  0  0  0
   15.3704  -25.7858  -12.0914 C   0  0  0  0  0  0  0  0  0  0  0  0
   14.1150  -25.9235   -9.9249 C   0  0  0  0  0  0  0  0  0  0  0  0
   11.1035  -25.7012  -13.0910 C   0  0  0  0  0  0  0  0  0  0  0  0
   10.1277  -26.5551  -12.2987 C   0  0  0  0  0  0  0  0  0  0  0  0
   14.3250  -26.5753  -11.2966 C   0  0  0  0  0  0  0  0  0  0  0  0
    4.8721  -27.3554   -9.2887 N   0  0  0  0  0  0  0  0  0  0  0  0
   13.0765  -26.5706  -12.0237 N   0  0  0  0  0  0  0  0  0  0  0  0
    4.4971  -25.2638  -10.2536 O   0  0  0  0  0  0  0  0  0  0  0  0
   12.7650  -24.2695  -12.0624 O   0  0  0  0  0  0  0  0  0  0  0  0
    8.8591  -24.5827  -11.1261 O   0  0  0  0  0  0  0  0  0  0  0  0
   10.8039  -25.6634   -9.9447 O   0  0  0  0  0  0  0  0  0  0  0  0
    9.6237  -25.7710  -10.7865 S   0  0  0  0  0  0  0  0  0  0  0  0
   10.7920  -28.6491   -9.5572 Br  0  0  0  0  0  0  0  0  0  0  0  0
    8.3766  -29.9834   -8.5369 H   0  0  0  0  0  0  0  0  0  0  0  0
    6.8435  -25.6272  -10.4340 H   0  0  0  0  0  0  0  0  0  0  0  0
    5.4871  -30.4385   -8.8833 H   0  0  0  0  0  0  0  0  0  0  0  0
    5.7291  -29.6576   -7.2857 H   0  0  0  0  0  0  0  0  0  0  0  0
    3.6432  -29.0681   -9.2610 H   0  0  0  0  0  0  0  0  0  0  0  0
    3.8834  -28.2957   -7.6824 H   0  0  0  0  0  0  0  0  0  0  0  0
    2.4105  -26.0127   -8.4187 H   0  0  0  0  0  0  0  0  0  0  0  0
    2.3512  -27.4767   -9.4253 H   0  0  0  0  0  0  0  0  0  0  0  0
    2.0521  -25.8889  -10.1554 H   0  0  0  0  0  0  0  0  0  0  0  0
   14.0654  -28.6082  -10.5439 H   0  0  0  0  0  0  0  0  0  0  0  0
   14.9520  -28.5179  -12.0754 H   0  0  0  0  0  0  0  0  0  0  0  0
   15.7427  -28.0602  -10.5563 H   0  0  0  0  0  0  0  0  0  0  0  0
   15.0540  -24.7464  -12.2373 H   0  0  0  0  0  0  0  0  0  0  0  0
   15.5219  -26.2207  -13.0862 H   0  0  0  0  0  0  0  0  0  0  0  0
   16.3378  -25.7748  -11.5772 H   0  0  0  0  0  0  0  0  0  0  0  0
   13.7760  -24.8862  -10.0282 H   0  0  0  0  0  0  0  0  0  0  0  0
   13.3673  -26.4660   -9.3358 H   0  0  0  0  0  0  0  0  0  0  0  0
   15.0475  -25.9037   -9.3490 H   0  0  0  0  0  0  0  0  0  0  0  0
   10.6345  -24.7536  -13.3810 H   0  0  0  0  0  0  0  0  0  0  0  0
   11.3785  -26.2339  -14.0094 H   0  0  0  0  0  0  0  0  0  0  0  0
   10.5473  -27.5298  -12.0340 H   0  0  0  0  0  0  0  0  0  0  0  0
    9.2114  -26.7153  -12.8756 H   0  0  0  0  0  0  0  0  0  0  0  0
   12.6789  -27.4602  -12.3106 H   0  0  0  0  0  0  0  0  0  0  0  0
  1  3  2  0  0  0  0
  1  6  1  0  0  0  0
  2  4  2  0  0  0  0
  2  5  1  0  0  0  0
  3  4  1  0  0  0  0
  3  9  1  0  0  0  0
  4 18  1  0  0  0  0
  5  6  2  0  0  0  0
  5 24  1  0  0  0  0
  6 25  1  0  0  0  0
  7 11  1  0  0  0  0
  7 18  1  0  0  0  0
  7 20  2  0  0  0  0
  8 15  1  0  0  0  0
  8 19  1  0  0  0  0
  8 21  2  0  0  0  0
  9 10  1  0  0  0  0
 10 18  1  0  0  0  0
 12 17  1  0  0  0  0
 13 17  1  0  0  0  0
 14 17  1  0  0  0  0
 15 16  1  0  0  0  0
 16 24  1  0  0  0  0
 17 19  1  0  0  0  0
 22 24  2  0  0  0  0
 23 24  2  0  0  0  0
  1 26  1  0  0  0  0
  2 27  1  0  0  0  0
  9 28  1  0  0  0  0
  9 29  1  0  0  0  0
 10 30  1  0  0  0  0
 10 31  1  0  0  0  0
 11 32  1  0  0  0  0
 11 33  1  0  0  0  0
 11 34  1  0  0  0  0
 12 35  1  0  0  0  0
 12 36  1  0  0  0  0
 12 37  1  0  0  0  0
 13 38  1  0  0  0  0
 13 39  1  0  0  0  0
 13 40  1  0  0  0  0
 14 41  1  0  0  0  0
 14 42  1  0  0  0  0
 14 43  1  0  0  0  0
 15 44  1  0  0  0  0
 15 45  1  0  0  0  0
 16 46  1  0  0  0  0
 16 47  1  0  0  0  0
 19 48  1  0  0  0  0
M  END
> <Hybrid2>
-3.7125227451324463

> <Hybrid2>
-3.712521

$$$$
C41066233
  -OEChem-02152218483D

 29 30  0     1  0  0  0  0  0999 V2000
    9.4016  -26.3201  -11.3277 C   0  0  0  0  0  0  0  0  0  0  0  0
   11.6741  -26.6837  -10.7276 C   0  0  0  0  0  0  0  0  0  0  0  0
    9.1114  -26.1138   -9.9836 C   0  0  0  0  0  0  0  0  0  0  0  0
   10.7049  -26.6110  -11.7151 C   0  0  0  0  0  0  0  0  0  0  0  0
   10.1519  -26.2090   -9.0736 C   0  0  0  0  0  0  0  0  0  0  0  0
    5.4577  -29.0662   -8.5252 C   0  0  0  0  0  0  0  0  0  0  0  0
    6.3465  -29.8838   -7.5914 C   0  0  0  0  0  0  0  0  0  0  0  0
    7.4519  -29.2284   -9.9334 C   0  0  0  0  0  0  0  0  0  0  0  0
    6.3846  -28.2534   -9.4352 C   0  0  2  0  0  0  0  0  0  0  0  0
   11.4303  -26.4895   -9.4121 N   0  0  0  0  0  0  0  0  0  0  0  0
    6.9953  -27.1674   -8.6958 N   0  0  0  0  0  0  0  0  0  0  0  0
    7.5704  -31.7094   -9.0470 O   0  0  0  0  0  0  0  0  0  0  0  0
    8.9630  -29.9353   -7.8863 O   0  0  0  0  0  0  0  0  0  0  0  0
    7.4878  -24.6444   -8.5641 O   0  0  0  0  0  0  0  0  0  0  0  0
    6.6730  -25.6379  -10.7259 O   0  0  0  0  0  0  0  0  0  0  0  0
    7.7600  -30.3532   -8.5759 S   0  0  0  0  0  0  0  0  0  0  0  0
    7.4495  -25.7470   -9.5058 S   0  0  0  0  0  0  0  0  0  0  0  0
    9.9314  -25.9758   -7.3831 Cl  0  0  0  0  0  0  0  0  0  0  0  0
   11.1401  -26.8951  -13.5253 Br  0  0  0  0  0  0  0  0  0  0  0  0
    8.6100  -26.2537  -12.0705 H   0  0  0  0  0  0  0  0  0  0  0  0
   12.7103  -26.9059  -10.9636 H   0  0  0  0  0  0  0  0  0  0  0  0
    4.8557  -29.7465   -9.1404 H   0  0  0  0  0  0  0  0  0  0  0  0
    4.7682  -28.4351   -7.9550 H   0  0  0  0  0  0  0  0  0  0  0  0
    6.7047  -29.2793   -6.7532 H   0  0  0  0  0  0  0  0  0  0  0  0
    5.8444  -30.7782   -7.2164 H   0  0  0  0  0  0  0  0  0  0  0  0
    7.0673  -29.8264  -10.7654 H   0  0  0  0  0  0  0  0  0  0  0  0
    8.3883  -28.7455  -10.2231 H   0  0  0  0  0  0  0  0  0  0  0  0
    5.8250  -27.8264  -10.2849 H   0  0  0  0  0  0  0  0  0  0  0  0
    6.7649  -27.1334   -7.7019 H   0  0  0  0  0  0  0  0  0  0  0  0
  1  3  2  0  0  0  0
  1  4  1  0  0  0  0
  2  4  2  0  0  0  0
  2 10  1  0  0  0  0
  3  5  1  0  0  0  0
  3 17  1  0  0  0  0
  4 19  1  0  0  0  0
  5 10  2  0  0  0  0
  5 18  1  0  0  0  0
  6  7  1  0  0  0  0
  6  9  1  0  0  0  0
  7 16  1  0  0  0  0
  8  9  1  0  0  0  0
  8 16  1  0  0  0  0
  9 11  1  0  0  0  0
 11 17  1  0  0  0  0
 12 16  2  0  0  0  0
 13 16  2  0  0  0  0
 14 17  2  0  0  0  0
 15 17  2  0  0  0  0
  1 20  1  0  0  0  0
  2 21  1  0  0  0  0
  6 22  1  0  0  0  0
  6 23  1  0  0  0  0
  7 24  1  0  0  0  0
  7 25  1  0  0  0  0
  8 26  1  0  0  0  0
  8 27  1  0  0  0  0
  9 28  1  0  0  0  0
 11 29  1  0  0  0  0
M  END
> <Hybrid2>
-2.1549062728881836

> <Hybrid2>
-2.154906

$$$$
C41066233
  -OEChem-02152218483D

 29 30  0     1  0  0  0  0  0999 V2000
    6.7554  -27.6227   -9.6393 C   0  0  0  0  0  0  0  0  0  0  0  0
    6.4924  -26.9203   -7.3822 C   0  0  0  0  0  0  0  0  0  0  0  0
    7.3282  -26.3883   -9.9247 C   0  0  0  0  0  0  0  0  0  0  0  0
    6.3269  -27.9017   -8.3463 C   0  0  0  0  0  0  0  0  0  0  0  0
    7.4487  -25.4746   -8.8901 C   0  0  0  0  0  0  0  0  0  0  0  0
   11.0244  -26.9151   -9.6458 C   0  0  0  0  0  0  0  0  0  0  0  0
   12.2422  -26.0927  -10.0592 C   0  0  0  0  0  0  0  0  0  0  0  0
   11.2594  -27.7038  -11.9499 C   0  0  0  0  0  0  0  0  0  0  0  0
   10.2341  -27.2256  -10.9214 C   0  0  2  0  0  0  0  0  0  0  0  0
    7.0443  -25.7096   -7.6217 N   0  0  0  0  0  0  0  0  0  0  0  0
    9.5541  -26.0381  -11.3974 N   0  0  0  0  0  0  0  0  0  0  0  0
   13.8452  -27.6718  -11.4326 O   0  0  0  0  0  0  0  0  0  0  0  0
   12.8125  -25.6677  -12.5949 O   0  0  0  0  0  0  0  0  0  0  0  0
    7.4734  -27.1632  -12.4124 O   0  0  0  0  0  0  0  0  0  0  0  0
    7.4242  -24.7031  -11.8931 O   0  0  0  0  0  0  0  0  0  0  0  0
   12.7442  -26.7541  -11.6397 S   0  0  0  0  0  0  0  0  0  0  0  0
    7.8663  -26.0470  -11.5736 S   0  0  0  0  0  0  0  0  0  0  0  0
    8.1391  -23.9133   -9.1057 Cl  0  0  0  0  0  0  0  0  0  0  0  0
    5.5479  -29.5619   -7.9177 Br  0  0  0  0  0  0  0  0  0  0  0  0
    6.6442  -28.3648  -10.4265 H   0  0  0  0  0  0  0  0  0  0  0  0
    6.1801  -27.0753   -6.3541 H   0  0  0  0  0  0  0  0  0  0  0  0
   11.3595  -27.8563   -9.1924 H   0  0  0  0  0  0  0  0  0  0  0  0
   10.4268  -26.3807   -8.9001 H   0  0  0  0  0  0  0  0  0  0  0  0
   11.9813  -25.0400  -10.2013 H   0  0  0  0  0  0  0  0  0  0  0  0
   13.0640  -26.1785   -9.3452 H   0  0  0  0  0  0  0  0  0  0  0  0
   11.5098  -28.7559  -11.7820 H   0  0  0  0  0  0  0  0  0  0  0  0
   10.9452  -27.5562  -12.9860 H   0  0  0  0  0  0  0  0  0  0  0  0
    9.4799  -28.0092  -10.7350 H   0  0  0  0  0  0  0  0  0  0  0  0
   10.0418  -25.1581  -11.2246 H   0  0  0  0  0  0  0  0  0  0  0  0
  1  3  2  0  0  0  0
  1  4  1  0  0  0  0
  2  4  2  0  0  0  0
  2 10  1  0  0  0  0
  3  5  1  0  0  0  0
  3 17  1  0  0  0  0
  4 19  1  0  0  0  0
  5 10  2  0  0  0  0
  5 18  1  0  0  0  0
  6  7  1  0  0  0  0
  6  9  1  0  0  0  0
  7 16  1  0  0  0  0
  8  9  1  0  0  0  0
  8 16  1  0  0  0  0
  9 11  1  0  0  0  0
 11 17  1  0  0  0  0
 12 16  2  0  0  0  0
 13 16  2  0  0  0  0
 14 17  2  0  0  0  0
 15 17  2  0  0  0  0
  1 20  1  0  0  0  0
  2 21  1  0  0  0  0
  6 22  1  0  0  0  0
  6 23  1  0  0  0  0
  7 24  1  0  0  0  0
  7 25  1  0  0  0  0
  8 26  1  0  0  0  0
  8 27  1  0  0  0  0
  9 28  1  0  0  0  0
 11 29  1  0  0  0  0
M  END
> <Hybrid2>
-2.1549062728881836

> <Hybrid2>
-2.009660

$$$$
C44602305
  -OEChem-02152218483D

 60 65  0     1  0  0  0  0  0999 V2000
   11.0594  -25.2071  -11.7264 C   0  0  0  0  0  0  0  0  0  0  0  0
   11.4281  -27.9706  -11.3320 C   0  0  0  0  0  0  0  0  0  0  0  0
   10.0147  -25.9986  -11.2555 C   0  0  0  0  0  0  0  0  0  0  0  0
   10.2013  -27.3712  -11.0795 C   0  0  0  0  0  0  0  0  0  0  0  0
   12.2939  -25.8005  -11.9936 C   0  0  0  0  0  0  0  0  0  0  0  0
   12.4770  -27.1736  -11.7950 C   0  0  0  0  0  0  0  0  0  0  0  0
    4.4091  -26.5280   -9.8751 C   0  0  0  0  0  0  0  0  0  0  0  0
    5.3202  -25.5538   -9.6743 C   0  0  0  0  0  0  0  0  0  0  0  0
    8.5712  -24.5122   -9.8047 C   0  0  0  0  0  0  0  0  0  0  0  0
    8.8602  -29.2705  -10.1969 C   0  0  0  0  0  0  0  0  0  0  0  0
    4.4555  -27.9095   -9.3205 C   0  0  0  0  0  0  0  0  0  0  0  0
    5.0308  -24.2049  -10.3011 C   0  0  0  0  0  0  0  0  0  0  0  0
    7.5347  -24.5902   -8.6907 C   0  0  0  0  0  0  0  0  0  0  0  0
    7.7413  -29.5169   -9.1840 C   0  0  0  0  0  0  0  0  0  0  0  0
    7.9801  -24.9848  -12.2393 C   0  0  0  0  0  0  0  0  0  0  0  0
    6.4704  -24.7568  -12.3346 C   0  0  0  0  0  0  0  0  0  0  0  0
    6.5425  -25.7636   -8.7811 C   0  0  2  0  0  0  0  0  0  0  0  0
    7.4018  -27.0065   -9.0833 C   0  0  2  0  0  0  0  0  0  0  0  0
    7.9720  -26.9346  -10.4986 C   0  0  1  0  0  0  0  0  0  0  0  0
    6.7467  -28.3821   -8.8925 C   0  0  1  0  0  0  0  0  0  0  0  0
    8.5832  -25.5653  -10.9259 C   0  0  1  0  0  0  0  0  0  0  0  0
    5.4888  -22.4697  -12.0396 C   0  0  0  0  0  0  0  0  0  0  0  0
   13.4400  -24.8830  -13.8645 C   0  0  0  0  0  0  0  0  0  0  0  0
   14.6198  -27.8009  -10.9759 C   0  0  0  0  0  0  0  0  0  0  0  0
    9.0274  -27.9568  -10.5896 N   0  0  0  0  0  0  0  0  0  0  0  0
    6.0121  -23.7056  -11.3498 N   0  3  1  0  0  0  0  0  0  0  0  0
    9.3653  -23.5659   -9.8020 O   0  0  0  0  0  0  0  0  0  0  0  0
    9.5936  -30.2092  -10.5126 O   0  0  0  0  0  0  0  0  0  0  0  0
    5.6262  -28.5864   -9.7521 O   0  0  0  0  0  0  0  0  0  0  0  0
   13.3196  -25.0279  -12.4512 O   0  0  0  0  0  0  0  0  0  0  0  0
   13.6862  -27.7493  -12.0521 O   0  0  0  0  0  0  0  0  0  0  0  0
   10.9219  -24.1427  -11.8908 H   0  0  0  0  0  0  0  0  0  0  0  0
   11.5949  -29.0306  -11.1803 H   0  0  0  0  0  0  0  0  0  0  0  0
    3.5344  -26.3156  -10.4873 H   0  0  0  0  0  0  0  0  0  0  0  0
    4.3409  -27.9183   -8.2304 H   0  0  0  0  0  0  0  0  0  0  0  0
    3.6056  -28.4697   -9.7261 H   0  0  0  0  0  0  0  0  0  0  0  0
    4.0522  -24.2074  -10.7980 H   0  0  0  0  0  0  0  0  0  0  0  0
    4.9821  -23.4325   -9.5248 H   0  0  0  0  0  0  0  0  0  0  0  0
    8.1124  -24.7026   -7.7623 H   0  0  0  0  0  0  0  0  0  0  0  0
    7.0225  -23.6266   -8.6125 H   0  0  0  0  0  0  0  0  0  0  0  0
    7.2067  -30.4210   -9.4997 H   0  0  0  0  0  0  0  0  0  0  0  0
    8.2633  -29.7513   -8.2464 H   0  0  0  0  0  0  0  0  0  0  0  0
    8.2372  -25.6575  -13.0709 H   0  0  0  0  0  0  0  0  0  0  0  0
    8.4760  -24.0329  -12.4778 H   0  0  0  0  0  0  0  0  0  0  0  0
    6.2264  -24.3961  -13.3412 H   0  0  0  0  0  0  0  0  0  0  0  0
    5.8969  -25.6750  -12.1908 H   0  0  0  0  0  0  0  0  0  0  0  0
    6.1359  -25.8773   -7.7647 H   0  0  0  0  0  0  0  0  0  0  0  0
    8.2415  -26.9823   -8.3689 H   0  0  0  0  0  0  0  0  0  0  0  0
    7.2113  -27.2435  -11.2265 H   0  0  0  0  0  0  0  0  0  0  0  0
    6.4152  -28.4985   -7.8523 H   0  0  0  0  0  0  0  0  0  0  0  0
    4.5998  -22.7542  -12.6054 H   0  0  0  0  0  0  0  0  0  0  0  0
    5.2456  -21.7349  -11.2697 H   0  0  0  0  0  0  0  0  0  0  0  0
    6.2735  -22.0991  -12.7019 H   0  0  0  0  0  0  0  0  0  0  0  0
   14.2962  -24.2441  -14.0944 H   0  0  0  0  0  0  0  0  0  0  0  0
   12.5242  -24.4415  -14.2658 H   0  0  0  0  0  0  0  0  0  0  0  0
   13.5931  -25.8683  -14.3111 H   0  0  0  0  0  0  0  0  0  0  0  0
   15.5403  -28.2831  -11.3139 H   0  0  0  0  0  0  0  0  0  0  0  0
   14.1868  -28.3613  -10.1434 H   0  0  0  0  0  0  0  0  0  0  0  0
   14.8432  -26.7824  -10.6499 H   0  0  0  0  0  0  0  0  0  0  0  0
    6.8362  -23.3692  -10.8436 H   0  0  0  0  0  0  0  0  0  0  0  0
  1  3  1  0  0  0  0
  1  5  2  0  0  0  0
  2  4  1  0  0  0  0
  2  6  2  0  0  0  0
  3  4  2  0  0  0  0
  3 21  1  0  0  0  0
  4 25  1  0  0  0  0
  5  6  1  0  0  0  0
  5 30  1  0  0  0  0
  6 31  1  0  0  0  0
  7  8  2  0  0  0  0
  7 11  1  0  0  0  0
  8 12  1  0  0  0  0
  8 17  1  0  0  0  0
  9 13  1  0  0  0  0
  9 21  1  0  0  0  0
  9 27  2  0  0  0  0
 10 14  1  0  0  0  0
 10 25  1  0  0  0  0
 10 28  2  0  0  0  0
 11 29  1  0  0  0  0
 12 26  1  0  0  0  0
 13 17  1  0  0  0  0
 14 20  1  0  0  0  0
 15 16  1  0  0  0  0
 15 21  1  0  0  0  0
 16 26  1  0  0  0  0
 17 18  1  0  0  0  0
 18 19  1  0  0  0  0
 18 20  1  0  0  0  0
 19 21  1  0  0  0  0
 19 25  1  0  0  0  0
 20 29  1  0  0  0  0
 22 26  1  0  0  0  0
 23 30  1  0  0  0  0
 24 31  1  0  0  0  0
  1 32  1  0  0  0  0
  2 33  1  0  0  0  0
  7 34  1  0  0  0  0
 11 35  1  0  0  0  0
 11 36  1  0  0  0  0
 12 37  1  0  0  0  0
 12 38  1  0  0  0  0
 13 39  1  0  0  0  0
 13 40  1  0  0  0  0
 14 41  1  0  0  0  0
 14 42  1  0  0  0  0
 15 43  1  0  0  0  0
 15 44  1  0  0  0  0
 16 45  1  0  0  0  0
 16 46  1  0  0  0  0
 17 47  1  0  0  0  0
 18 48  1  0  0  0  0
 19 49  1  0  0  0  0
 20 50  1  0  0  0  0
 22 51  1  0  0  0  0
 22 52  1  0  0  0  0
 22 53  1  0  0  0  0
 23 54  1  0  0  0  0
 23 55  1  0  0  0  0
 23 56  1  0  0  0  0
 24 57  1  0  0  0  0
 24 58  1  0  0  0  0
 24 59  1  0  0  0  0
 26 60  1  0  0  0  0
M  CHG  1  26   1
M  END
> <Hybrid2>
-3.812976598739624

> <Hybrid2>
-3.812977

$$$$
C44602305
  -OEChem-02152218483D

 60 65  0     1  0  0  0  0  0999 V2000
   10.8863  -25.2776  -11.4718 C   0  0  0  0  0  0  0  0  0  0  0  0
   11.4735  -28.0116  -11.1420 C   0  0  0  0  0  0  0  0  0  0  0  0
    9.9114  -26.1584  -11.0097 C   0  0  0  0  0  0  0  0  0  0  0  0
   10.2063  -27.5157  -10.8658 C   0  0  0  0  0  0  0  0  0  0  0  0
   12.1605  -25.7668  -11.7625 C   0  0  0  0  0  0  0  0  0  0  0  0
   12.4523  -27.1252  -11.5960 C   0  0  0  0  0  0  0  0  0  0  0  0
    4.3786  -27.1544   -9.5939 C   0  0  0  0  0  0  0  0  0  0  0  0
    5.2128  -26.1164   -9.3793 C   0  0  0  0  0  0  0  0  0  0  0  0
    8.3711  -24.8210   -9.5141 C   0  0  0  0  0  0  0  0  0  0  0  0
    9.0266  -29.5326  -10.0142 C   0  0  0  0  0  0  0  0  0  0  0  0
    4.5383  -28.5396   -9.0704 C   0  0  0  0  0  0  0  0  0  0  0  0
    4.8126  -24.7812   -9.9735 C   0  0  0  0  0  0  0  0  0  0  0  0
    7.3553  -25.0038   -8.3934 C   0  0  0  0  0  0  0  0  0  0  0  0
    7.9408  -29.8875   -8.9976 C   0  0  0  0  0  0  0  0  0  0  0  0
    7.7939  -25.2861  -11.9535 C   0  0  0  0  0  0  0  0  0  0  0  0
    6.2702  -25.1749  -12.0309 C   0  0  0  0  0  0  0  0  0  0  0  0
    6.4568  -26.2490   -8.5014 C   0  0  2  0  0  0  0  0  0  0  0  0
    7.4074  -27.4141   -8.8383 C   0  0  2  0  0  0  0  0  0  0  0  0
    7.9558  -27.2674  -10.2565 C   0  0  1  0  0  0  0  0  0  0  0  0
    6.8636  -28.8405   -8.6726 C   0  0  1  0  0  0  0  0  0  0  0  0
    8.4538  -25.8457  -10.6585 C   0  0  1  0  0  0  0  0  0  0  0  0
    5.1160  -22.9785  -11.6769 C   0  0  0  0  0  0  0  0  0  0  0  0
   13.2123  -24.7225  -13.6224 C   0  0  0  0  0  0  0  0  0  0  0  0
   14.6457  -27.6004  -10.8093 C   0  0  0  0  0  0  0  0  0  0  0  0
    9.0868  -28.2018  -10.3791 N   0  0  0  0  0  0  0  0  0  0  0  0
    5.7412  -24.1842  -11.0191 N   0  3  1  0  0  0  0  0  0  0  0  0
    9.0889  -23.8158   -9.4972 O   0  0  0  0  0  0  0  0  0  0  0  0
    9.8278  -30.4040  -10.3568 O   0  0  0  0  0  0  0  0  0  0  0  0
    5.7539  -29.1134   -9.5269 O   0  0  0  0  0  0  0  0  0  0  0  0
   13.1180  -24.9066  -12.2116 O   0  0  0  0  0  0  0  0  0  0  0  0
   13.7000  -27.5989  -11.8761 O   0  0  0  0  0  0  0  0  0  0  0  0
   10.6644  -24.2241  -11.6114 H   0  0  0  0  0  0  0  0  0  0  0  0
   11.7241  -29.0583  -11.0152 H   0  0  0  0  0  0  0  0  0  0  0  0
    3.4837  -26.9981  -10.1938 H   0  0  0  0  0  0  0  0  0  0  0  0
    4.4358  -28.5807   -7.9799 H   0  0  0  0  0  0  0  0  0  0  0  0
    3.7306  -29.1558   -9.4812 H   0  0  0  0  0  0  0  0  0  0  0  0
    3.8322  -24.8496  -10.4620 H   0  0  0  0  0  0  0  0  0  0  0  0
    4.7117  -24.0318   -9.1799 H   0  0  0  0  0  0  0  0  0  0  0  0
    7.9494  -25.0905   -7.4727 H   0  0  0  0  0  0  0  0  0  0  0  0
    6.7702  -24.0851   -8.2895 H   0  0  0  0  0  0  0  0  0  0  0  0
    7.4751  -30.8236   -9.3287 H   0  0  0  0  0  0  0  0  0  0  0  0
    8.4890  -30.1004   -8.0699 H   0  0  0  0  0  0  0  0  0  0  0  0
    8.0942  -25.9187  -12.8020 H   0  0  0  0  0  0  0  0  0  0  0  0
    8.2115  -24.2934  -12.1750 H   0  0  0  0  0  0  0  0  0  0  0  0
    5.9885  -24.8130  -13.0272 H   0  0  0  0  0  0  0  0  0  0  0  0
    5.7716  -26.1381  -11.9026 H   0  0  0  0  0  0  0  0  0  0  0  0
    6.0707  -26.4160   -7.4843 H   0  0  0  0  0  0  0  0  0  0  0  0
    8.2498  -27.3395   -8.1307 H   0  0  0  0  0  0  0  0  0  0  0  0
    7.2141  -27.6192  -10.9846 H   0  0  0  0  0  0  0  0  0  0  0  0
    6.5528  -29.0048   -7.6324 H   0  0  0  0  0  0  0  0  0  0  0  0
    4.2462  -23.3196  -12.2414 H   0  0  0  0  0  0  0  0  0  0  0  0
    4.8241  -22.2817  -10.8889 H   0  0  0  0  0  0  0  0  0  0  0  0
    5.8626  -22.5336  -12.3375 H   0  0  0  0  0  0  0  0  0  0  0  0
   14.0136  -24.0138  -13.8453 H   0  0  0  0  0  0  0  0  0  0  0  0
   12.2608  -24.3455  -14.0059 H   0  0  0  0  0  0  0  0  0  0  0  0
   13.4374  -25.6830  -14.0920 H   0  0  0  0  0  0  0  0  0  0  0  0
   15.5975  -28.0017  -11.1657 H   0  0  0  0  0  0  0  0  0  0  0  0
   14.2663  -28.2107   -9.9858 H   0  0  0  0  0  0  0  0  0  0  0  0
   14.7922  -26.5747  -10.4627 H   0  0  0  0  0  0  0  0  0  0  0  0
    6.5417  -23.7953  -10.5127 H   0  0  0  0  0  0  0  0  0  0  0  0
  1  3  1  0  0  0  0
  1  5  2  0  0  0  0
  2  4  1  0  0  0  0
  2  6  2  0  0  0  0
  3  4  2  0  0  0  0
  3 21  1  0  0  0  0
  4 25  1  0  0  0  0
  5  6  1  0  0  0  0
  5 30  1  0  0  0  0
  6 31  1  0  0  0  0
  7  8  2  0  0  0  0
  7 11  1  0  0  0  0
  8 12  1  0  0  0  0
  8 17  1  0  0  0  0
  9 13  1  0  0  0  0
  9 21  1  0  0  0  0
  9 27  2  0  0  0  0
 10 14  1  0  0  0  0
 10 25  1  0  0  0  0
 10 28  2  0  0  0  0
 11 29  1  0  0  0  0
 12 26  1  0  0  0  0
 13 17  1  0  0  0  0
 14 20  1  0  0  0  0
 15 16  1  0  0  0  0
 15 21  1  0  0  0  0
 16 26  1  0  0  0  0
 17 18  1  0  0  0  0
 18 19  1  0  0  0  0
 18 20  1  0  0  0  0
 19 21  1  0  0  0  0
 19 25  1  0  0  0  0
 20 29  1  0  0  0  0
 22 26  1  0  0  0  0
 23 30  1  0  0  0  0
 24 31  1  0  0  0  0
  1 32  1  0  0  0  0
  2 33  1  0  0  0  0
  7 34  1  0  0  0  0
 11 35  1  0  0  0  0
 11 36  1  0  0  0  0
 12 37  1  0  0  0  0
 12 38  1  0  0  0  0
 13 39  1  0  0  0  0
 13 40  1  0  0  0  0
 14 41  1  0  0  0  0
 14 42  1  0  0  0  0
 15 43  1  0  0  0  0
 15 44  1  0  0  0  0
 16 45  1  0  0  0  0
 16 46  1  0  0  0  0
 17 47  1  0  0  0  0
 18 48  1  0  0  0  0
 19 49  1  0  0  0  0
 20 50  1  0  0  0  0
 22 51  1  0  0  0  0
 22 52  1  0  0  0  0
 22 53  1  0  0  0  0
 23 54  1  0  0  0  0
 23 55  1  0  0  0  0
 23 56  1  0  0  0  0
 24 57  1  0  0  0  0
 24 58  1  0  0  0  0
 24 59  1  0  0  0  0
 26 60  1  0  0  0  0
M  CHG  1  26   1
M  END
> <Hybrid2>
-3.812976598739624

> <Hybrid2>
-3.352465

$$$$
C15726613
  -OEChem-02152218483D

 53 55  0     1  0  0  0  0  0999 V2000
    9.2908  -25.5677  -11.6914 C   0  0  0  0  0  0  0  0  0  0  0  0
    8.0506  -25.6384  -11.0558 C   0  0  0  0  0  0  0  0  0  0  0  0
    9.0953  -26.6514   -9.1309 C   0  0  0  0  0  0  0  0  0  0  0  0
   10.3386  -26.6046   -9.7732 C   0  0  0  0  0  0  0  0  0  0  0  0
   10.4404  -26.0523  -11.0552 C   0  0  0  0  0  0  0  0  0  0  0  0
    7.9533  -26.1771   -9.7755 C   0  0  0  0  0  0  0  0  0  0  0  0
   12.7303  -27.2577   -9.5878 C   0  0  0  0  0  0  0  0  0  0  0  0
    4.1078  -29.5684   -8.8366 C   0  0  0  0  0  0  0  0  0  0  0  0
    1.1857  -29.5031   -6.6840 C   0  0  0  0  0  0  0  0  0  0  0  0
    1.5468  -31.7882   -7.6827 C   0  0  0  0  0  0  0  0  0  0  0  0
    2.6937  -29.2653   -6.7446 C   0  0  0  0  0  0  0  0  0  0  0  0
    3.0466  -31.5048   -7.7209 C   0  0  0  0  0  0  0  0  0  0  0  0
   12.8505  -27.2888  -11.1039 C   0  0  2  0  0  0  0  0  0  0  0  0
    0.8609  -30.9993   -6.5571 C   0  0  0  0  0  0  0  0  0  0  0  0
   14.3051  -27.3128  -11.5609 C   0  0  0  0  0  0  0  0  0  0  0  0
   -0.6481  -31.2309   -6.5724 C   0  0  0  0  0  0  0  0  0  0  0  0
    3.2270  -27.4153   -9.6058 C   0  0  0  0  0  0  0  0  0  0  0  0
    5.7296  -27.8193   -9.4409 C   0  0  0  0  0  0  0  0  0  0  0  0
    4.3584  -28.0814   -8.8366 C   0  0  2  0  0  0  0  0  0  0  0  0
   11.4654  -27.0683   -9.0669 N   0  0  0  0  0  0  0  0  0  0  0  0
    3.3043  -30.0667   -7.8117 N   0  0  0  0  0  0  0  0  0  0  0  0
   13.6916  -27.5061   -8.8563 O   0  0  0  0  0  0  0  0  0  0  0  0
    4.6099  -30.2640   -9.7231 O   0  0  0  0  0  0  0  0  0  0  0  0
    6.6465  -26.2691   -7.5353 O   0  0  0  0  0  0  0  0  0  0  0  0
    5.5347  -25.2219   -9.5387 O   0  0  0  0  0  0  0  0  0  0  0  0
   12.0195  -25.8650  -11.8519 S   0  0  0  0  0  0  0  0  0  0  0  0
    6.3839  -26.2515   -8.9642 S   0  0  0  0  0  0  0  0  0  0  0  0
    9.3463  -25.1247  -12.6832 H   0  0  0  0  0  0  0  0  0  0  0  0
    7.1687  -25.2599  -11.5656 H   0  0  0  0  0  0  0  0  0  0  0  0
    9.0148  -27.0645   -8.1276 H   0  0  0  0  0  0  0  0  0  0  0  0
    0.7678  -28.9588   -5.8287 H   0  0  0  0  0  0  0  0  0  0  0  0
    0.7167  -29.0892   -7.5859 H   0  0  0  0  0  0  0  0  0  0  0  0
    1.1030  -31.5270   -8.6520 H   0  0  0  0  0  0  0  0  0  0  0  0
    1.3843  -32.8629   -7.5367 H   0  0  0  0  0  0  0  0  0  0  0  0
    2.8865  -28.1986   -6.8713 H   0  0  0  0  0  0  0  0  0  0  0  0
    3.1655  -29.5689   -5.8024 H   0  0  0  0  0  0  0  0  0  0  0  0
    3.5294  -31.8669   -6.8055 H   0  0  0  0  0  0  0  0  0  0  0  0
    3.5010  -32.0371   -8.5623 H   0  0  0  0  0  0  0  0  0  0  0  0
   12.3585  -28.2040  -11.4547 H   0  0  0  0  0  0  0  0  0  0  0  0
    1.2497  -31.3584   -5.5948 H   0  0  0  0  0  0  0  0  0  0  0  0
   14.8155  -26.4114  -11.2232 H   0  0  0  0  0  0  0  0  0  0  0  0
   14.3520  -27.3608  -12.6484 H   0  0  0  0  0  0  0  0  0  0  0  0
   14.8108  -28.1838  -11.1450 H   0  0  0  0  0  0  0  0  0  0  0  0
   -1.0659  -30.8843   -7.5164 H   0  0  0  0  0  0  0  0  0  0  0  0
   -1.1145  -30.6838   -5.7544 H   0  0  0  0  0  0  0  0  0  0  0  0
   -0.8603  -32.2929   -6.4574 H   0  0  0  0  0  0  0  0  0  0  0  0
    3.2254  -27.7173  -10.6593 H   0  0  0  0  0  0  0  0  0  0  0  0
    2.2525  -27.6905   -9.1866 H   0  0  0  0  0  0  0  0  0  0  0  0
    3.3111  -26.3254   -9.5628 H   0  0  0  0  0  0  0  0  0  0  0  0
    6.4587  -28.5659   -9.1069 H   0  0  0  0  0  0  0  0  0  0  0  0
    5.7066  -27.8411  -10.5354 H   0  0  0  0  0  0  0  0  0  0  0  0
    4.3284  -27.7573   -7.7924 H   0  0  0  0  0  0  0  0  0  0  0  0
   11.3413  -27.2478   -8.0739 H   0  0  0  0  0  0  0  0  0  0  0  0
  1  2  2  0  0  0  0
  1  5  1  0  0  0  0
  2  6  1  0  0  0  0
  3  4  1  0  0  0  0
  3  6  2  0  0  0  0
  4  5  2  0  0  0  0
  4 20  1  0  0  0  0
  5 26  1  0  0  0  0
  6 27  1  0  0  0  0
  7 13  1  0  0  0  0
  7 20  1  0  0  0  0
  7 22  2  0  0  0  0
  8 19  1  0  0  0  0
  8 21  1  0  0  0  0
  8 23  2  0  0  0  0
  9 11  1  0  0  0  0
  9 14  1  0  0  0  0
 10 12  1  0  0  0  0
 10 14  1  0  0  0  0
 11 21  1  0  0  0  0
 12 21  1  0  0  0  0
 13 15  1  0  0  0  0
 13 26  1  0  0  0  0
 14 16  1  0  0  0  0
 17 19  1  0  0  0  0
 18 19  1  0  0  0  0
 18 27  1  0  0  0  0
 24 27  2  0  0  0  0
 25 27  2  0  0  0  0
  1 28  1  0  0  0  0
  2 29  1  0  0  0  0
  3 30  1  0  0  0  0
  9 31  1  0  0  0  0
  9 32  1  0  0  0  0
 10 33  1  0  0  0  0
 10 34  1  0  0  0  0
 11 35  1  0  0  0  0
 11 36  1  0  0  0  0
 12 37  1  0  0  0  0
 12 38  1  0  0  0  0
 13 39  1  0  0  0  0
 14 40  1  0  0  0  0
 15 41  1  0  0  0  0
 15 42  1  0  0  0  0
 15 43  1  0  0  0  0
 16 44  1  0  0  0  0
 16 45  1  0  0  0  0
 16 46  1  0  0  0  0
 17 47  1  0  0  0  0
 17 48  1  0  0  0  0
 17 49  1  0  0  0  0
 18 50  1  0  0  0  0
 18 51  1  0  0  0  0
 19 52  1  0  0  0  0
 20 53  1  0  0  0  0
M  END
> <Hybrid2>
-2.5797312259674072

> <Hybrid2>
-2.579731

$$$$
C15726613
  -OEChem-02152218483D

 53 55  0     1  0  0  0  0  0999 V2000
   12.8399  -25.5647  -12.7640 C   0  0  0  0  0  0  0  0  0  0  0  0
   11.7066  -25.5798  -11.9503 C   0  0  0  0  0  0  0  0  0  0  0  0
   12.7242  -27.2748  -10.5686 C   0  0  0  0  0  0  0  0  0  0  0  0
   13.8727  -27.2483  -11.3699 C   0  0  0  0  0  0  0  0  0  0  0  0
   13.9301  -26.3967  -12.4777 C   0  0  0  0  0  0  0  0  0  0  0  0
   11.6475  -26.4365  -10.8547 C   0  0  0  0  0  0  0  0  0  0  0  0
   16.1758  -28.1463  -11.6122 C   0  0  0  0  0  0  0  0  0  0  0  0
    7.2845  -29.1979  -10.1423 C   0  0  0  0  0  0  0  0  0  0  0  0
    4.7362  -29.2253   -7.5573 C   0  0  0  0  0  0  0  0  0  0  0  0
    4.4519  -31.1526   -9.1556 C   0  0  0  0  0  0  0  0  0  0  0  0
    6.2402  -29.2579   -7.8241 C   0  0  0  0  0  0  0  0  0  0  0  0
    5.9610  -31.1472   -9.3879 C   0  0  0  0  0  0  0  0  0  0  0  0
   16.6078  -26.9546  -12.4415 C   0  0  2  0  0  0  0  0  0  0  0  0
    4.1026  -30.6099   -7.7616 C   0  0  0  0  0  0  0  0  0  0  0  0
   17.0691  -25.8109  -11.5435 C   0  0  0  0  0  0  0  0  0  0  0  0
    2.5898  -30.5496   -7.5651 C   0  0  0  0  0  0  0  0  0  0  0  0
    6.8210  -26.7921  -10.1642 C   0  0  0  0  0  0  0  0  0  0  0  0
    9.1706  -27.6736  -10.5590 C   0  0  0  0  0  0  0  0  0  0  0  0
    7.8597  -27.8451   -9.8065 C   0  0  2  0  0  0  0  0  0  0  0  0
   14.9198  -28.1314  -11.0487 N   0  0  0  0  0  0  0  0  0  0  0  0
    6.5211  -29.8155   -9.1523 N   0  0  0  0  0  0  0  0  0  0  0  0
   16.9805  -29.0500  -11.3664 O   0  0  0  0  0  0  0  0  0  0  0  0
    7.5062  -29.6883  -11.2524 O   0  0  0  0  0  0  0  0  0  0  0  0
   10.6366  -26.9301   -8.5164 O   0  0  0  0  0  0  0  0  0  0  0  0
    9.5517  -25.1675   -9.9522 O   0  0  0  0  0  0  0  0  0  0  0  0
   15.3184  -26.4103  -13.5881 S   0  0  0  0  0  0  0  0  0  0  0  0
   10.2124  -26.4550   -9.8221 S   0  0  0  0  0  0  0  0  0  0  0  0
   12.8619  -24.8910  -13.6182 H   0  0  0  0  0  0  0  0  0  0  0  0
   10.8805  -24.9106  -12.1753 H   0  0  0  0  0  0  0  0  0  0  0  0
   12.6661  -27.9560   -9.7219 H   0  0  0  0  0  0  0  0  0  0  0  0
    4.5582  -28.8836   -6.5308 H   0  0  0  0  0  0  0  0  0  0  0  0
    4.2653  -28.4917   -8.2242 H   0  0  0  0  0  0  0  0  0  0  0  0
    3.9630  -30.5477   -9.9301 H   0  0  0  0  0  0  0  0  0  0  0  0
    4.0721  -32.1758   -9.2629 H   0  0  0  0  0  0  0  0  0  0  0  0
    6.6499  -28.2533   -7.7060 H   0  0  0  0  0  0  0  0  0  0  0  0
    6.7434  -29.9000   -7.0913 H   0  0  0  0  0  0  0  0  0  0  0  0
    6.4584  -31.8386   -8.6975 H   0  0  0  0  0  0  0  0  0  0  0  0
    6.1786  -31.4883  -10.4049 H   0  0  0  0  0  0  0  0  0  0  0  0
   17.4885  -27.2893  -13.0350 H   0  0  0  0  0  0  0  0  0  0  0  0
    4.5156  -31.2949   -7.0090 H   0  0  0  0  0  0  0  0  0  0  0  0
   16.2349  -25.4511  -10.9420 H   0  0  0  0  0  0  0  0  0  0  0  0
   17.4475  -24.9902  -12.1521 H   0  0  0  0  0  0  0  0  0  0  0  0
   17.8619  -26.1559  -10.8803 H   0  0  0  0  0  0  0  0  0  0  0  0
    2.1482  -29.8763   -8.2984 H   0  0  0  0  0  0  0  0  0  0  0  0
    2.3610  -30.1857   -6.5646 H   0  0  0  0  0  0  0  0  0  0  0  0
    2.1608  -31.5428   -7.6898 H   0  0  0  0  0  0  0  0  0  0  0  0
    6.6233  -26.7728  -11.2420 H   0  0  0  0  0  0  0  0  0  0  0  0
    5.8683  -26.9947   -9.6619 H   0  0  0  0  0  0  0  0  0  0  0  0
    7.1516  -25.7948   -9.8594 H   0  0  0  0  0  0  0  0  0  0  0  0
    9.7492  -28.6040  -10.5634 H   0  0  0  0  0  0  0  0  0  0  0  0
    9.0100  -27.3751  -11.6003 H   0  0  0  0  0  0  0  0  0  0  0  0
    8.0307  -27.8351   -8.7263 H   0  0  0  0  0  0  0  0  0  0  0  0
   14.7378  -28.8023  -10.3031 H   0  0  0  0  0  0  0  0  0  0  0  0
  1  2  2  0  0  0  0
  1  5  1  0  0  0  0
  2  6  1  0  0  0  0
  3  4  1  0  0  0  0
  3  6  2  0  0  0  0
  4  5  2  0  0  0  0
  4 20  1  0  0  0  0
  5 26  1  0  0  0  0
  6 27  1  0  0  0  0
  7 13  1  0  0  0  0
  7 20  1  0  0  0  0
  7 22  2  0  0  0  0
  8 19  1  0  0  0  0
  8 21  1  0  0  0  0
  8 23  2  0  0  0  0
  9 11  1  0  0  0  0
  9 14  1  0  0  0  0
 10 12  1  0  0  0  0
 10 14  1  0  0  0  0
 11 21  1  0  0  0  0
 12 21  1  0  0  0  0
 13 15  1  0  0  0  0
 13 26  1  0  0  0  0
 14 16  1  0  0  0  0
 17 19  1  0  0  0  0
 18 19  1  0  0  0  0
 18 27  1  0  0  0  0
 24 27  2  0  0  0  0
 25 27  2  0  0  0  0
  1 28  1  0  0  0  0
  2 29  1  0  0  0  0
  3 30  1  0  0  0  0
  9 31  1  0  0  0  0
  9 32  1  0  0  0  0
 10 33  1  0  0  0  0
 10 34  1  0  0  0  0
 11 35  1  0  0  0  0
 11 36  1  0  0  0  0
 12 37  1  0  0  0  0
 12 38  1  0  0  0  0
 13 39  1  0  0  0  0
 14 40  1  0  0  0  0
 15 41  1  0  0  0  0
 15 42  1  0  0  0  0
 15 43  1  0  0  0  0
 16 44  1  0  0  0  0
 16 45  1  0  0  0  0
 16 46  1  0  0  0  0
 17 47  1  0  0  0  0
 17 48  1  0  0  0  0
 17 49  1  0  0  0  0
 18 50  1  0  0  0  0
 18 51  1  0  0  0  0
 19 52  1  0  0  0  0
 20 53  1  0  0  0  0
M  END
> <Hybrid2>
-2.5797312259674072

> <Hybrid2>
-1.834102

$$$$
C58078676
  -OEChem-02152218483D

 61 64  0     1  0  0  0  0  0999 V2000
   11.6789  -25.6017  -11.5509 C   0  0  0  0  0  0  0  0  0  0  0  0
   11.6018  -26.9748  -11.0316 C   0  0  0  0  0  0  0  0  0  0  0  0
   13.0436  -25.8820  -12.1018 C   0  0  0  0  0  0  0  0  0  0  0  0
    4.7810  -29.2411   -7.9446 C   0  0  0  0  0  0  0  0  0  0  0  0
   -0.1834  -31.3870   -7.7152 C   0  0  0  0  0  0  0  0  0  0  0  0
    0.4598  -30.4770   -6.6725 C   0  0  0  0  0  0  0  0  0  0  0  0
    0.8538  -32.2559   -8.4209 C   0  0  0  0  0  0  0  0  0  0  0  0
   15.1118  -29.2092   -9.2560 C   0  0  0  0  0  0  0  0  0  0  0  0
   16.1171  -28.3210   -9.9828 C   0  0  0  0  0  0  0  0  0  0  0  0
    6.4137  -27.4100   -7.8594 C   0  0  0  0  0  0  0  0  0  0  0  0
    6.6725  -29.3040   -9.5080 C   0  0  0  0  0  0  0  0  0  0  0  0
    7.4805  -26.6111   -8.6061 C   0  0  0  0  0  0  0  0  0  0  0  0
    7.7408  -28.5090  -10.2570 C   0  0  0  0  0  0  0  0  0  0  0  0
    1.5815  -29.6333   -7.2758 C   0  0  0  0  0  0  0  0  0  0  0  0
    1.9755  -31.4141   -9.0268 C   0  0  0  0  0  0  0  0  0  0  0  0
   13.7822  -28.9575   -9.9518 C   0  0  0  0  0  0  0  0  0  0  0  0
   15.3129  -27.6100  -11.0611 C   0  0  0  0  0  0  0  0  0  0  0  0
   12.9672  -27.3624  -11.5684 C   0  0  1  0  0  0  0  0  0  0  0  0
    5.6960  -28.3782   -8.7923 C   0  0  0  0  0  0  0  0  0  0  0  0
    8.4746  -27.5317   -9.3281 C   0  0  0  0  0  0  0  0  0  0  0  0
    2.6266  -30.5108   -7.9737 C   0  0  0  0  0  0  0  0  0  0  0  0
    9.4993  -26.7115  -10.1095 C   0  0  0  0  0  0  0  0  0  0  0  0
   10.6615  -27.5512  -10.3755 N   0  0  0  0  0  0  0  0  0  0  0  0
   13.9555  -27.6171  -10.5139 N   0  0  0  0  0  0  0  0  0  0  0  0
    3.6429  -29.6685   -8.6014 N   0  0  0  0  0  0  0  0  0  0  0  0
   10.9578  -24.6611  -11.5353 O   0  0  0  0  0  0  0  0  0  0  0  0
   13.7508  -25.1116  -12.6858 O   0  0  0  0  0  0  0  0  0  0  0  0
    5.0919  -29.4954   -6.7868 O   0  0  0  0  0  0  0  0  0  0  0  0
   -0.9338  -32.0250   -7.2351 H   0  0  0  0  0  0  0  0  0  0  0  0
   -0.7111  -30.7748   -8.4570 H   0  0  0  0  0  0  0  0  0  0  0  0
   -0.3016  -29.8201   -6.2369 H   0  0  0  0  0  0  0  0  0  0  0  0
    0.8623  -31.0868   -5.8542 H   0  0  0  0  0  0  0  0  0  0  0  0
    1.2799  -32.9698   -7.7052 H   0  0  0  0  0  0  0  0  0  0  0  0
    0.3681  -32.8437   -9.2080 H   0  0  0  0  0  0  0  0  0  0  0  0
   15.3960  -30.2654   -9.3032 H   0  0  0  0  0  0  0  0  0  0  0  0
   15.0589  -28.9219   -8.1994 H   0  0  0  0  0  0  0  0  0  0  0  0
   16.5500  -27.5990   -9.2805 H   0  0  0  0  0  0  0  0  0  0  0  0
   16.9374  -28.9047  -10.4125 H   0  0  0  0  0  0  0  0  0  0  0  0
    6.8818  -27.9578   -7.0307 H   0  0  0  0  0  0  0  0  0  0  0  0
    5.6923  -26.7208   -7.4035 H   0  0  0  0  0  0  0  0  0  0  0  0
    6.1337  -29.9491  -10.2128 H   0  0  0  0  0  0  0  0  0  0  0  0
    7.1587  -29.9744   -8.7871 H   0  0  0  0  0  0  0  0  0  0  0  0
    6.9929  -25.9465   -9.3307 H   0  0  0  0  0  0  0  0  0  0  0  0
    8.0140  -25.9684   -7.8956 H   0  0  0  0  0  0  0  0  0  0  0  0
    8.4575  -29.2047  -10.7096 H   0  0  0  0  0  0  0  0  0  0  0  0
    7.2689  -27.9582  -11.0809 H   0  0  0  0  0  0  0  0  0  0  0  0
    1.1501  -28.9221   -7.9921 H   0  0  0  0  0  0  0  0  0  0  0  0
    2.0544  -29.0440   -6.4811 H   0  0  0  0  0  0  0  0  0  0  0  0
    2.7265  -32.0807   -9.4678 H   0  0  0  0  0  0  0  0  0  0  0  0
    1.5661  -30.8044   -9.8427 H   0  0  0  0  0  0  0  0  0  0  0  0
   13.6276  -29.7114  -10.7336 H   0  0  0  0  0  0  0  0  0  0  0  0
   12.9438  -29.0053   -9.2511 H   0  0  0  0  0  0  0  0  0  0  0  0
   15.6812  -26.5953  -11.2372 H   0  0  0  0  0  0  0  0  0  0  0  0
   15.3780  -28.1729  -12.0005 H   0  0  0  0  0  0  0  0  0  0  0  0
   12.9337  -28.1192  -12.3563 H   0  0  0  0  0  0  0  0  0  0  0  0
    5.0827  -27.8491   -9.4970 H   0  0  0  0  0  0  0  0  0  0  0  0
    9.0158  -28.1156   -8.5714 H   0  0  0  0  0  0  0  0  0  0  0  0
    3.1495  -31.1168   -7.2396 H   0  0  0  0  0  0  0  0  0  0  0  0
    9.7947  -25.8402   -9.5250 H   0  0  0  0  0  0  0  0  0  0  0  0
    9.0606  -26.3741  -11.0485 H   0  0  0  0  0  0  0  0  0  0  0  0
    3.5061  -29.3838   -9.5666 H   0  0  0  0  0  0  0  0  0  0  0  0
  1  2  1  0  0  0  0
  1  3  1  0  0  0  0
  1 26  2  0  0  0  0
  2 18  1  0  0  0  0
  2 23  2  0  0  0  0
  3 18  1  0  0  0  0
  3 27  2  0  0  0  0
  4 19  1  0  0  0  0
  4 25  1  0  0  0  0
  4 28  2  0  0  0  0
  5  6  1  0  0  0  0
  5  7  1  0  0  0  0
  6 14  1  0  0  0  0
  7 15  1  0  0  0  0
  8  9  1  0  0  0  0
  8 16  1  0  0  0  0
  9 17  1  0  0  0  0
 10 12  1  0  0  0  0
 10 19  1  0  0  0  0
 11 13  1  0  0  0  0
 11 19  1  0  0  0  0
 12 20  1  0  0  0  0
 13 20  1  0  0  0  0
 14 21  1  0  0  0  0
 15 21  1  0  0  0  0
 16 24  1  0  0  0  0
 17 24  1  0  0  0  0
 18 24  1  0  0  0  0
 20 22  1  0  0  0  0
 21 25  1  0  0  0  0
 22 23  1  0  0  0  0
  5 29  1  0  0  0  0
  5 30  1  0  0  0  0
  6 31  1  0  0  0  0
  6 32  1  0  0  0  0
  7 33  1  0  0  0  0
  7 34  1  0  0  0  0
  8 35  1  0  0  0  0
  8 36  1  0  0  0  0
  9 37  1  0  0  0  0
  9 38  1  0  0  0  0
 10 39  1  0  0  0  0
 10 40  1  0  0  0  0
 11 41  1  0  0  0  0
 11 42  1  0  0  0  0
 12 43  1  0  0  0  0
 12 44  1  0  0  0  0
 13 45  1  0  0  0  0
 13 46  1  0  0  0  0
 14 47  1  0  0  0  0
 14 48  1  0  0  0  0
 15 49  1  0  0  0  0
 15 50  1  0  0  0  0
 16 51  1  0  0  0  0
 16 52  1  0  0  0  0
 17 53  1  0  0  0  0
 17 54  1  0  0  0  0
 18 55  1  0  0  0  0
 19 56  1  0  0  0  0
 20 57  1  0  0  0  0
 21 58  1  0  0  0  0
 22 59  1  0  0  0  0
 22 60  1  0  0  0  0
 25 61  1  0  0  0  0
M  END
> <Hybrid2>
-5.475632667541504

> <Hybrid2>
-5.475633

$$$$
C58078676
  -OEChem-02152218483D

 61 64  0     1  0  0  0  0  0999 V2000
   11.6004  -25.6330  -11.5637 C   0  0  0  0  0  0  0  0  0  0  0  0
   11.5641  -26.9701  -10.9539 C   0  0  0  0  0  0  0  0  0  0  0  0
   12.9922  -25.8901  -12.0550 C   0  0  0  0  0  0  0  0  0  0  0  0
    4.7495  -29.3180   -7.9144 C   0  0  0  0  0  0  0  0  0  0  0  0
   -0.1264  -31.6574   -7.6800 C   0  0  0  0  0  0  0  0  0  0  0  0
    0.4454  -30.6523   -6.6843 C   0  0  0  0  0  0  0  0  0  0  0  0
    0.9675  -32.5259   -8.2947 C   0  0  0  0  0  0  0  0  0  0  0  0
   15.1062  -28.9252   -8.9300 C   0  0  0  0  0  0  0  0  0  0  0  0
   16.0961  -28.0451   -9.6870 C   0  0  0  0  0  0  0  0  0  0  0  0
    6.3014  -27.4161   -7.9084 C   0  0  0  0  0  0  0  0  0  0  0  0
    6.6901  -29.4036   -9.4153 C   0  0  0  0  0  0  0  0  0  0  0  0
    7.3571  -26.6236   -8.6774 C   0  0  0  0  0  0  0  0  0  0  0  0
    7.7475  -28.6152  -10.1863 C   0  0  0  0  0  0  0  0  0  0  0  0
    1.5496  -29.8031   -7.3118 C   0  0  0  0  0  0  0  0  0  0  0  0
    2.0719  -31.6788   -8.9246 C   0  0  0  0  0  0  0  0  0  0  0  0
   13.7898  -28.7789   -9.6790 C   0  0  0  0  0  0  0  0  0  0  0  0
   15.2974  -27.4438  -10.8340 C   0  0  0  0  0  0  0  0  0  0  0  0
   12.9605  -27.3332  -11.4237 C   0  0  1  0  0  0  0  0  0  0  0  0
    5.6541  -28.4751   -8.7928 C   0  0  0  0  0  0  0  0  0  0  0  0
    8.4106  -27.5465   -9.3060 C   0  0  0  0  0  0  0  0  0  0  0  0
    2.6515  -30.6792   -7.9178 C   0  0  0  0  0  0  0  0  0  0  0  0
    9.4245  -26.7370  -10.1122 C   0  0  0  0  0  0  0  0  0  0  0  0
   10.6283  -27.5414  -10.2869 N   0  0  0  0  0  0  0  0  0  0  0  0
   13.9249  -27.4731  -10.3265 N   0  0  0  0  0  0  0  0  0  0  0  0
    3.6513  -29.8377   -8.5726 N   0  0  0  0  0  0  0  0  0  0  0  0
   10.8408  -24.7257  -11.6331 O   0  0  0  0  0  0  0  0  0  0  0  0
   13.6849  -25.1307  -12.6700 O   0  0  0  0  0  0  0  0  0  0  0  0
    5.0342  -29.4801   -6.7335 O   0  0  0  0  0  0  0  0  0  0  0  0
   -0.8644  -32.2937   -7.1789 H   0  0  0  0  0  0  0  0  0  0  0  0
   -0.6555  -31.1201   -8.4767 H   0  0  0  0  0  0  0  0  0  0  0  0
   -0.3558  -30.0013   -6.3166 H   0  0  0  0  0  0  0  0  0  0  0  0
    0.8469  -31.1876   -5.8150 H   0  0  0  0  0  0  0  0  0  0  0  0
    1.4001  -33.1709   -7.5199 H   0  0  0  0  0  0  0  0  0  0  0  0
    0.5315  -33.1859   -9.0531 H   0  0  0  0  0  0  0  0  0  0  0  0
   15.4353  -29.9689   -8.8965 H   0  0  0  0  0  0  0  0  0  0  0  0
   15.0083  -28.5700   -7.8974 H   0  0  0  0  0  0  0  0  0  0  0  0
   16.4764  -27.2593   -9.0238 H   0  0  0  0  0  0  0  0  0  0  0  0
   16.9530  -28.6201  -10.0522 H   0  0  0  0  0  0  0  0  0  0  0  0
    6.7656  -27.8860   -7.0311 H   0  0  0  0  0  0  0  0  0  0  0  0
    5.5382  -26.7298   -7.5216 H   0  0  0  0  0  0  0  0  0  0  0  0
    6.2009  -30.1175  -10.0893 H   0  0  0  0  0  0  0  0  0  0  0  0
    7.1808  -30.0022   -8.6365 H   0  0  0  0  0  0  0  0  0  0  0  0
    6.8654  -26.0311   -9.4595 H   0  0  0  0  0  0  0  0  0  0  0  0
    7.8410  -25.9119   -7.9978 H   0  0  0  0  0  0  0  0  0  0  0  0
    8.5063  -29.3079  -10.5695 H   0  0  0  0  0  0  0  0  0  0  0  0
    7.2793  -28.1420  -11.0591 H   0  0  0  0  0  0  0  0  0  0  0  0
    1.1118  -29.1611   -8.0871 H   0  0  0  0  0  0  0  0  0  0  0  0
    1.9724  -29.1416   -6.5462 H   0  0  0  0  0  0  0  0  0  0  0  0
    2.8633  -32.3403   -9.2974 H   0  0  0  0  0  0  0  0  0  0  0  0
    1.6633  -31.1437   -9.7917 H   0  0  0  0  0  0  0  0  0  0  0  0
   13.6911  -29.5897  -10.4114 H   0  0  0  0  0  0  0  0  0  0  0  0
   12.9325  -28.8159   -9.0009 H   0  0  0  0  0  0  0  0  0  0  0  0
   15.6286  -26.4282  -11.0686 H   0  0  0  0  0  0  0  0  0  0  0  0
   15.4152  -28.0653  -11.7303 H   0  0  0  0  0  0  0  0  0  0  0  0
   12.9832  -28.1420  -12.1585 H   0  0  0  0  0  0  0  0  0  0  0  0
    5.0418  -28.0218   -9.5494 H   0  0  0  0  0  0  0  0  0  0  0  0
    8.9516  -28.0541   -8.4959 H   0  0  0  0  0  0  0  0  0  0  0  0
    3.1758  -31.2112   -7.1293 H   0  0  0  0  0  0  0  0  0  0  0  0
    9.6651  -25.8164   -9.5807 H   0  0  0  0  0  0  0  0  0  0  0  0
    9.0019  -26.4830  -11.0844 H   0  0  0  0  0  0  0  0  0  0  0  0
    3.5331  -29.6248   -9.5585 H   0  0  0  0  0  0  0  0  0  0  0  0
  1  2  1  0  0  0  0
  1  3  1  0  0  0  0
  1 26  2  0  0  0  0
  2 18  1  0  0  0  0
  2 23  2  0  0  0  0
  3 18  1  0  0  0  0
  3 27  2  0  0  0  0
  4 19  1  0  0  0  0
  4 25  1  0  0  0  0
  4 28  2  0  0  0  0
  5  6  1  0  0  0  0
  5  7  1  0  0  0  0
  6 14  1  0  0  0  0
  7 15  1  0  0  0  0
  8  9  1  0  0  0  0
  8 16  1  0  0  0  0
  9 17  1  0  0  0  0
 10 12  1  0  0  0  0
 10 19  1  0  0  0  0
 11 13  1  0  0  0  0
 11 19  1  0  0  0  0
 12 20  1  0  0  0  0
 13 20  1  0  0  0  0
 14 21  1  0  0  0  0
 15 21  1  0  0  0  0
 16 24  1  0  0  0  0
 17 24  1  0  0  0  0
 18 24  1  0  0  0  0
 20 22  1  0  0  0  0
 21 25  1  0  0  0  0
 22 23  1  0  0  0  0
  5 29  1  0  0  0  0
  5 30  1  0  0  0  0
  6 31  1  0  0  0  0
  6 32  1  0  0  0  0
  7 33  1  0  0  0  0
  7 34  1  0  0  0  0
  8 35  1  0  0  0  0
  8 36  1  0  0  0  0
  9 37  1  0  0  0  0
  9 38  1  0  0  0  0
 10 39  1  0  0  0  0
 10 40  1  0  0  0  0
 11 41  1  0  0  0  0
 11 42  1  0  0  0  0
 12 43  1  0  0  0  0
 12 44  1  0  0  0  0
 13 45  1  0  0  0  0
 13 46  1  0  0  0  0
 14 47  1  0  0  0  0
 14 48  1  0  0  0  0
 15 49  1  0  0  0  0
 15 50  1  0  0  0  0
 16 51  1  0  0  0  0
 16 52  1  0  0  0  0
 17 53  1  0  0  0  0
 17 54  1  0  0  0  0
 18 55  1  0  0  0  0
 19 56  1  0  0  0  0
 20 57  1  0  0  0  0
 21 58  1  0  0  0  0
 22 59  1  0  0  0  0
 22 60  1  0  0  0  0
 25 61  1  0  0  0  0
M  END
> <Hybrid2>
-5.475632667541504

> <Hybrid2>
-5.377907

$$$$
C54888644
  -OEChem-02152218483D

 36 38  0     0  0  0  0  0  0999 V2000
    6.1079  -29.5343   -8.7705 C   0  0  0  0  0  0  0  0  0  0  0  0
    4.6616  -27.6725   -8.2423 C   0  0  0  0  0  0  0  0  0  0  0  0
    5.0047  -30.3877   -8.7832 C   0  0  0  0  0  0  0  0  0  0  0  0
    3.5584  -28.5259   -8.2551 C   0  0  0  0  0  0  0  0  0  0  0  0
    5.9364  -28.1767   -8.4999 C   0  0  0  0  0  0  0  0  0  0  0  0
    3.7299  -29.8835   -8.5256 C   0  0  0  0  0  0  0  0  0  0  0  0
   13.5409  -27.2822  -12.8379 C   0  0  0  0  0  0  0  0  0  0  0  0
   11.7520  -26.2662  -12.1251 C   0  0  0  0  0  0  0  0  0  0  0  0
    8.8324  -26.4180   -9.7828 C   0  0  0  0  0  0  0  0  0  0  0  0
   14.7776  -27.9999  -12.4934 C   0  0  0  0  0  0  0  0  0  0  0  0
   14.8972  -27.6916  -10.9746 C   0  0  0  0  0  0  0  0  0  0  0  0
   13.4785  -27.3191  -10.4935 C   0  0  0  0  0  0  0  0  0  0  0  0
   10.7521  -25.7115  -11.2010 C   0  0  0  0  0  0  0  0  0  0  0  0
    8.1060  -27.6665   -9.3296 C   0  0  0  0  0  0  0  0  0  0  0  0
   12.9066  -26.8750  -13.9058 N   0  0  0  0  0  0  0  0  0  0  0  0
   11.7563  -26.2224  -13.4476 N   0  0  0  0  0  0  0  0  0  0  0  0
   12.8461  -26.9254  -11.7295 N   0  0  0  0  0  0  0  0  0  0  0  0
    9.8898  -26.7221  -10.6221 N   0  0  0  0  0  0  0  0  0  0  0  0
    8.4975  -25.2902   -9.4307 O   0  0  0  0  0  0  0  0  0  0  0  0
    7.0236  -27.3351   -8.4860 O   0  0  0  0  0  0  0  0  0  0  0  0
    2.0868  -31.1546   -8.5445 I   0  0  0  0  0  0  0  0  0  0  0  0
    7.0985  -29.9329   -8.9722 H   0  0  0  0  0  0  0  0  0  0  0  0
    4.5226  -26.6158   -8.0298 H   0  0  0  0  0  0  0  0  0  0  0  0
    5.1606  -31.4423   -8.9951 H   0  0  0  0  0  0  0  0  0  0  0  0
    2.5738  -28.1128   -8.0509 H   0  0  0  0  0  0  0  0  0  0  0  0
   14.6597  -29.0749  -12.6613 H   0  0  0  0  0  0  0  0  0  0  0  0
   15.6489  -27.6378  -13.0447 H   0  0  0  0  0  0  0  0  0  0  0  0
   15.3257  -28.5260  -10.4109 H   0  0  0  0  0  0  0  0  0  0  0  0
   15.5614  -26.8282  -10.8362 H   0  0  0  0  0  0  0  0  0  0  0  0
   12.9359  -28.1818  -10.0972 H   0  0  0  0  0  0  0  0  0  0  0  0
   13.4733  -26.4846   -9.7887 H   0  0  0  0  0  0  0  0  0  0  0  0
   11.2197  -25.1747  -10.3534 H   0  0  0  0  0  0  0  0  0  0  0  0
   10.0851  -24.9758  -11.6894 H   0  0  0  0  0  0  0  0  0  0  0  0
    7.7151  -28.1944  -10.2047 H   0  0  0  0  0  0  0  0  0  0  0  0
    8.7934  -28.3265   -8.7914 H   0  0  0  0  0  0  0  0  0  0  0  0
   10.0693  -27.6955  -10.8418 H   0  0  0  0  0  0  0  0  0  0  0  0
  1  3  1  0  0  0  0
  1  5  2  0  0  0  0
  2  4  2  0  0  0  0
  2  5  1  0  0  0  0
  3  6  2  0  0  0  0
  4  6  1  0  0  0  0
  5 20  1  0  0  0  0
  6 21  1  0  0  0  0
  7 10  1  0  0  0  0
  7 15  2  0  0  0  0
  7 17  1  0  0  0  0
  8 13  1  0  0  0  0
  8 16  2  0  0  0  0
  8 17  1  0  0  0  0
  9 14  1  0  0  0  0
  9 18  1  0  0  0  0
  9 19  2  0  0  0  0
 10 11  1  0  0  0  0
 11 12  1  0  0  0  0
 12 17  1  0  0  0  0
 13 18  1  0  0  0  0
 14 20  1  0  0  0  0
 15 16  1  0  0  0  0
  1 22  1  0  0  0  0
  2 23  1  0  0  0  0
  3 24  1  0  0  0  0
  4 25  1  0  0  0  0
 10 26  1  0  0  0  0
 10 27  1  0  0  0  0
 11 28  1  0  0  0  0
 11 29  1  0  0  0  0
 12 30  1  0  0  0  0
 12 31  1  0  0  0  0
 13 32  1  0  0  0  0
 13 33  1  0  0  0  0
 14 34  1  0  0  0  0
 14 35  1  0  0  0  0
 18 36  1  0  0  0  0
M  END
> <Hybrid2>
-4.267488956451416

> <Hybrid2>
-4.267489

$$$$
C54888644
  -OEChem-02152218483D

 36 38  0     0  0  0  0  0  0999 V2000
    6.2796  -28.8323   -8.3717 C   0  0  0  0  0  0  0  0  0  0  0  0
    4.7347  -27.1176   -9.0860 C   0  0  0  0  0  0  0  0  0  0  0  0
    5.2171  -29.7204   -8.2053 C   0  0  0  0  0  0  0  0  0  0  0  0
    3.6721  -28.0058   -8.9197 C   0  0  0  0  0  0  0  0  0  0  0  0
    6.0384  -27.5308   -8.8120 C   0  0  0  0  0  0  0  0  0  0  0  0
    3.9133  -29.3073   -8.4794 C   0  0  0  0  0  0  0  0  0  0  0  0
   14.4391  -27.8262  -11.4172 C   0  0  0  0  0  0  0  0  0  0  0  0
   12.5248  -26.8142  -11.6449 C   0  0  0  0  0  0  0  0  0  0  0  0
    9.1396  -26.2236  -10.1533 C   0  0  0  0  0  0  0  0  0  0  0  0
   15.5668  -28.1581  -10.5332 C   0  0  0  0  0  0  0  0  0  0  0  0
   15.3252  -27.1807   -9.3489 C   0  0  0  0  0  0  0  0  0  0  0  0
   13.8303  -26.7988   -9.3984 C   0  0  0  0  0  0  0  0  0  0  0  0
   11.3320  -26.0209  -11.3144 C   0  0  0  0  0  0  0  0  0  0  0  0
    8.3377  -27.2043   -9.3246 C   0  0  0  0  0  0  0  0  0  0  0  0
   14.0690  -28.0270  -12.6546 N   0  0  0  0  0  0  0  0  0  0  0  0
   12.8381  -27.3770  -12.8008 N   0  0  0  0  0  0  0  0  0  0  0  0
   13.5014  -27.0880  -10.7735 N   0  0  0  0  0  0  0  0  0  0  0  0
   10.3665  -26.7503  -10.5170 N   0  0  0  0  0  0  0  0  0  0  0  0
    8.7224  -25.1070  -10.4486 O   0  0  0  0  0  0  0  0  0  0  0  0
    7.0853  -26.6545   -8.9750 O   0  0  0  0  0  0  0  0  0  0  0  0
    2.3307  -30.6301   -8.2315 I   0  0  0  0  0  0  0  0  0  0  0  0
    7.2931  -29.1601   -8.1569 H   0  0  0  0  0  0  0  0  0  0  0  0
    4.5411  -26.1045   -9.4281 H   0  0  0  0  0  0  0  0  0  0  0  0
    5.4269  -30.7295   -7.8602 H   0  0  0  0  0  0  0  0  0  0  0  0
    2.6637  -27.6635   -9.1380 H   0  0  0  0  0  0  0  0  0  0  0  0
   15.5003  -29.1973  -10.1963 H   0  0  0  0  0  0  0  0  0  0  0  0
   16.5399  -27.9875  -11.0003 H   0  0  0  0  0  0  0  0  0  0  0  0
   15.6168  -27.6105   -8.3858 H   0  0  0  0  0  0  0  0  0  0  0  0
   15.9315  -26.2779   -9.5011 H   0  0  0  0  0  0  0  0  0  0  0  0
   13.2171  -27.4435   -8.7626 H   0  0  0  0  0  0  0  0  0  0  0  0
   13.6535  -25.7421   -9.1861 H   0  0  0  0  0  0  0  0  0  0  0  0
   11.5838  -25.1066  -10.7436 H   0  0  0  0  0  0  0  0  0  0  0  0
   10.7918  -25.6719  -12.2150 H   0  0  0  0  0  0  0  0  0  0  0  0
    8.1667  -28.1143   -9.9076 H   0  0  0  0  0  0  0  0  0  0  0  0
    8.8855  -27.4616   -8.4127 H   0  0  0  0  0  0  0  0  0  0  0  0
   10.6004  -27.6885  -10.2120 H   0  0  0  0  0  0  0  0  0  0  0  0
  1  3  1  0  0  0  0
  1  5  2  0  0  0  0
  2  4  2  0  0  0  0
  2  5  1  0  0  0  0
  3  6  2  0  0  0  0
  4  6  1  0  0  0  0
  5 20  1  0  0  0  0
  6 21  1  0  0  0  0
  7 10  1  0  0  0  0
  7 15  2  0  0  0  0
  7 17  1  0  0  0  0
  8 13  1  0  0  0  0
  8 16  2  0  0  0  0
  8 17  1  0  0  0  0
  9 14  1  0  0  0  0
  9 18  1  0  0  0  0
  9 19  2  0  0  0  0
 10 11  1  0  0  0  0
 11 12  1  0  0  0  0
 12 17  1  0  0  0  0
 13 18  1  0  0  0  0
 14 20  1  0  0  0  0
 15 16  1  0  0  0  0
  1 22  1  0  0  0  0
  2 23  1  0  0  0  0
  3 24  1  0  0  0  0
  4 25  1  0  0  0  0
 10 26  1  0  0  0  0
 10 27  1  0  0  0  0
 11 28  1  0  0  0  0
 11 29  1  0  0  0  0
 12 30  1  0  0  0  0
 12 31  1  0  0  0  0
 13 32  1  0  0  0  0
 13 33  1  0  0  0  0
 14 34  1  0  0  0  0
 14 35  1  0  0  0  0
 18 36  1  0  0  0  0
M  END
> <Hybrid2>
-4.267488956451416

> <Hybrid2>
-3.960602

$$$$
C59361822
  -OEChem-02152218483D

 45 47  0     1  0  0  0  0  0999 V2000
   14.3600  -27.3125   -9.1899 C   0  0  0  0  0  0  0  0  0  0  0  0
   15.2512  -28.1213   -9.9525 C   0  0  0  0  0  0  0  0  0  0  0  0
    2.0392  -28.0334   -9.4291 C   0  0  0  0  0  0  0  0  0  0  0  0
    0.8789  -28.4584  -10.0332 C   0  0  0  0  0  0  0  0  0  0  0  0
    2.3513  -30.0274  -10.3794 C   0  0  0  0  0  0  0  0  0  0  0  0
    2.9955  -29.0523   -9.6540 C   0  0  0  0  0  0  0  0  0  0  0  0
   13.4736  -26.6243   -9.9888 C   0  0  0  0  0  0  0  0  0  0  0  0
   15.0118  -28.0207  -11.3055 C   0  0  0  0  0  0  0  0  0  0  0  0
    4.4145  -29.1069   -9.2177 C   0  0  0  0  0  0  0  0  0  0  0  0
    6.9174  -26.5387   -9.3500 C   0  0  0  0  0  0  0  0  0  0  0  0
    9.1816  -27.6676   -9.5851 C   0  0  0  0  0  0  0  0  0  0  0  0
    8.7627  -25.4598  -10.5923 C   0  0  0  0  0  0  0  0  0  0  0  0
   10.5470  -27.1640   -9.1137 C   0  0  0  0  0  0  0  0  0  0  0  0
   10.1323  -24.9969  -10.0967 C   0  0  0  0  0  0  0  0  0  0  0  0
    6.5846  -27.6229   -7.1403 C   0  0  0  0  0  0  0  0  0  0  0  0
   12.3857  -25.6755   -9.5759 C   0  0  0  0  0  0  0  0  0  0  0  0
    6.4222  -27.7706   -8.6351 C   0  0  1  0  0  0  0  0  0  0  0  0
    8.2451  -26.5559   -9.7747 N   0  0  0  0  0  0  0  0  0  0  0  0
   11.0676  -26.1284  -10.0183 N   0  0  0  0  0  0  0  0  0  0  0  0
    5.0505  -27.8817   -9.0305 N   0  0  0  0  0  0  0  0  0  0  0  0
    4.9539  -30.1998   -9.0659 O   0  0  0  0  0  0  0  0  0  0  0  0
    6.1480  -25.5898   -9.5216 O   0  0  0  0  0  0  0  0  0  0  0  0
    1.0607  -29.6731  -10.6147 O   0  0  0  0  0  0  0  0  0  0  0  0
   13.7174  -26.9543  -11.6513 S   0  0  0  0  0  0  0  0  0  0  0  0
   15.9919  -28.9478  -12.6423 Br  0  0  0  0  0  0  0  0  0  0  0  0
   14.3720  -27.2418   -8.1096 H   0  0  0  0  0  0  0  0  0  0  0  0
   16.0258  -28.7426   -9.5205 H   0  0  0  0  0  0  0  0  0  0  0  0
    2.1749  -27.1038   -8.8944 H   0  0  0  0  0  0  0  0  0  0  0  0
   -0.1099  -28.0351  -10.1341 H   0  0  0  0  0  0  0  0  0  0  0  0
    2.6516  -30.9827  -10.7860 H   0  0  0  0  0  0  0  0  0  0  0  0
    9.2739  -28.1763  -10.5528 H   0  0  0  0  0  0  0  0  0  0  0  0
    8.8024  -28.4001   -8.8698 H   0  0  0  0  0  0  0  0  0  0  0  0
    8.0657  -24.6155  -10.5946 H   0  0  0  0  0  0  0  0  0  0  0  0
    8.8306  -25.8294  -11.6230 H   0  0  0  0  0  0  0  0  0  0  0  0
   10.4640  -26.7839   -8.0867 H   0  0  0  0  0  0  0  0  0  0  0  0
   11.2371  -28.0160   -9.0918 H   0  0  0  0  0  0  0  0  0  0  0  0
   10.5158  -24.2483  -10.8005 H   0  0  0  0  0  0  0  0  0  0  0  0
   10.0254  -24.5044   -9.1210 H   0  0  0  0  0  0  0  0  0  0  0  0
    6.0380  -26.7546   -6.7545 H   0  0  0  0  0  0  0  0  0  0  0  0
    6.2004  -28.5106   -6.6267 H   0  0  0  0  0  0  0  0  0  0  0  0
    7.6381  -27.4972   -6.8695 H   0  0  0  0  0  0  0  0  0  0  0  0
   12.3580  -25.5706   -8.4858 H   0  0  0  0  0  0  0  0  0  0  0  0
   12.5547  -24.6777   -9.9944 H   0  0  0  0  0  0  0  0  0  0  0  0
    6.9651  -28.6331   -9.0185 H   0  0  0  0  0  0  0  0  0  0  0  0
    4.5453  -27.0197   -9.2399 H   0  0  0  0  0  0  0  0  0  0  0  0
  1  2  1  0  0  0  0
  1  7  2  0  0  0  0
  2  8  2  0  0  0  0
  3  4  2  0  0  0  0
  3  6  1  0  0  0  0
  4 23  1  0  0  0  0
  5  6  2  0  0  0  0
  5 23  1  0  0  0  0
  6  9  1  0  0  0  0
  7 16  1  0  0  0  0
  7 24  1  0  0  0  0
  8 24  1  0  0  0  0
  8 25  1  0  0  0  0
  9 20  1  0  0  0  0
  9 21  2  0  0  0  0
 10 17  1  0  0  0  0
 10 18  1  0  0  0  0
 10 22  2  0  0  0  0
 11 13  1  0  0  0  0
 11 18  1  0  0  0  0
 12 14  1  0  0  0  0
 12 18  1  0  0  0  0
 13 19  1  0  0  0  0
 14 19  1  0  0  0  0
 15 17  1  0  0  0  0
 16 19  1  0  0  0  0
 17 20  1  0  0  0  0
  1 26  1  0  0  0  0
  2 27  1  0  0  0  0
  3 28  1  0  0  0  0
  4 29  1  0  0  0  0
  5 30  1  0  0  0  0
 11 31  1  0  0  0  0
 11 32  1  0  0  0  0
 12 33  1  0  0  0  0
 12 34  1  0  0  0  0
 13 35  1  0  0  0  0
 13 36  1  0  0  0  0
 14 37  1  0  0  0  0
 14 38  1  0  0  0  0
 15 39  1  0  0  0  0
 15 40  1  0  0  0  0
 15 41  1  0  0  0  0
 16 42  1  0  0  0  0
 16 43  1  0  0  0  0
 17 44  1  0  0  0  0
 20 45  1  0  0  0  0
M  END
> <Hybrid2>
-2.5749714374542236

> <Hybrid2>
-2.574971

$$$$
C59361822
  -OEChem-02152218483D

 45 47  0     1  0  0  0  0  0999 V2000
   12.6225  -27.1213  -12.1171 C   0  0  0  0  0  0  0  0  0  0  0  0
   13.8280  -27.8802  -12.1446 C   0  0  0  0  0  0  0  0  0  0  0  0
    1.8286  -29.3876   -7.5830 C   0  0  0  0  0  0  0  0  0  0  0  0
    0.5805  -29.7442   -8.0380 C   0  0  0  0  0  0  0  0  0  0  0  0
    1.9374  -30.0091   -9.7227 C   0  0  0  0  0  0  0  0  0  0  0  0
    2.7098  -29.5595   -8.6771 C   0  0  0  0  0  0  0  0  0  0  0  0
   12.4539  -26.4609  -10.9200 C   0  0  0  0  0  0  0  0  0  0  0  0
   14.5351  -27.7708  -10.9673 C   0  0  0  0  0  0  0  0  0  0  0  0
    4.1747  -29.3194   -8.7366 C   0  0  0  0  0  0  0  0  0  0  0  0
    6.2109  -26.9475   -8.8735 C   0  0  0  0  0  0  0  0  0  0  0  0
    8.5419  -27.8400   -9.3493 C   0  0  0  0  0  0  0  0  0  0  0  0
    7.5887  -26.0175  -10.7036 C   0  0  0  0  0  0  0  0  0  0  0  0
    9.8721  -27.0853   -9.3178 C   0  0  0  0  0  0  0  0  0  0  0  0
    8.9342  -25.2953  -10.6411 C   0  0  0  0  0  0  0  0  0  0  0  0
    6.4819  -27.4708   -6.4607 C   0  0  0  0  0  0  0  0  0  0  0  0
   11.3249  -25.5659  -10.4973 C   0  0  0  0  0  0  0  0  0  0  0  0
    6.0657  -28.0070   -7.8104 C   0  0  1  0  0  0  0  0  0  0  0  0
    7.4193  -26.9231   -9.5683 N   0  0  0  0  0  0  0  0  0  0  0  0
   10.0378  -26.2594  -10.5229 N   0  0  0  0  0  0  0  0  0  0  0  0
    4.6802  -28.3660   -7.8557 N   0  0  0  0  0  0  0  0  0  0  0  0
    4.8519  -29.9404   -9.5516 O   0  0  0  0  0  0  0  0  0  0  0  0
    5.2799  -26.1640   -9.0764 O   0  0  0  0  0  0  0  0  0  0  0  0
    0.6382  -30.1244   -9.3414 O   0  0  0  0  0  0  0  0  0  0  0  0
   13.7457  -26.7567   -9.8356 S   0  0  0  0  0  0  0  0  0  0  0  0
   16.1908  -28.6356  -10.6235 Br  0  0  0  0  0  0  0  0  0  0  0  0
   11.9171  -27.0653  -12.9365 H   0  0  0  0  0  0  0  0  0  0  0  0
   14.1514  -28.4735  -12.9908 H   0  0  0  0  0  0  0  0  0  0  0  0
    2.0692  -29.0464   -6.5860 H   0  0  0  0  0  0  0  0  0  0  0  0
   -0.3988  -29.7803   -7.5834 H   0  0  0  0  0  0  0  0  0  0  0  0
    2.1454  -30.2789  -10.7485 H   0  0  0  0  0  0  0  0  0  0  0  0
    8.5304  -28.5623  -10.1750 H   0  0  0  0  0  0  0  0  0  0  0  0
    8.4283  -28.4064   -8.4228 H   0  0  0  0  0  0  0  0  0  0  0  0
    6.7767  -25.2839  -10.7386 H   0  0  0  0  0  0  0  0  0  0  0  0
    7.5193  -26.6246  -11.6147 H   0  0  0  0  0  0  0  0  0  0  0  0
    9.9246  -26.4707   -8.4093 H   0  0  0  0  0  0  0  0  0  0  0  0
   10.6824  -27.8221   -9.2609 H   0  0  0  0  0  0  0  0  0  0  0  0
    9.0515  -24.7100  -11.5612 H   0  0  0  0  0  0  0  0  0  0  0  0
    8.9357  -24.5882   -9.8009 H   0  0  0  0  0  0  0  0  0  0  0  0
    5.8852  -26.5998   -6.1662 H   0  0  0  0  0  0  0  0  0  0  0  0
    6.3505  -28.2378   -5.6900 H   0  0  0  0  0  0  0  0  0  0  0  0
    7.5332  -27.1645   -6.4661 H   0  0  0  0  0  0  0  0  0  0  0  0
   11.4874  -25.1939   -9.4798 H   0  0  0  0  0  0  0  0  0  0  0  0
   11.2482  -24.6932  -11.1543 H   0  0  0  0  0  0  0  0  0  0  0  0
    6.6583  -28.8723   -8.1032 H   0  0  0  0  0  0  0  0  0  0  0  0
    4.0363  -27.8507   -7.2540 H   0  0  0  0  0  0  0  0  0  0  0  0
  1  2  1  0  0  0  0
  1  7  2  0  0  0  0
  2  8  2  0  0  0  0
  3  4  2  0  0  0  0
  3  6  1  0  0  0  0
  4 23  1  0  0  0  0
  5  6  2  0  0  0  0
  5 23  1  0  0  0  0
  6  9  1  0  0  0  0
  7 16  1  0  0  0  0
  7 24  1  0  0  0  0
  8 24  1  0  0  0  0
  8 25  1  0  0  0  0
  9 20  1  0  0  0  0
  9 21  2  0  0  0  0
 10 17  1  0  0  0  0
 10 18  1  0  0  0  0
 10 22  2  0  0  0  0
 11 13  1  0  0  0  0
 11 18  1  0  0  0  0
 12 14  1  0  0  0  0
 12 18  1  0  0  0  0
 13 19  1  0  0  0  0
 14 19  1  0  0  0  0
 15 17  1  0  0  0  0
 16 19  1  0  0  0  0
 17 20  1  0  0  0  0
  1 26  1  0  0  0  0
  2 27  1  0  0  0  0
  3 28  1  0  0  0  0
  4 29  1  0  0  0  0
  5 30  1  0  0  0  0
 11 31  1  0  0  0  0
 11 32  1  0  0  0  0
 12 33  1  0  0  0  0
 12 34  1  0  0  0  0
 13 35  1  0  0  0  0
 13 36  1  0  0  0  0
 14 37  1  0  0  0  0
 14 38  1  0  0  0  0
 15 39  1  0  0  0  0
 15 40  1  0  0  0  0
 15 41  1  0  0  0  0
 16 42  1  0  0  0  0
 16 43  1  0  0  0  0
 17 44  1  0  0  0  0
 20 45  1  0  0  0  0
M  END
> <Hybrid2>
-2.5749714374542236

> <Hybrid2>
-1.839972

$$$$
C62251786
  -OEChem-02152218483D

 31 33  0     1  0  0  0  0  0999 V2000
   12.6155  -26.5344  -10.5634 C   0  0  0  0  0  0  0  0  0  0  0  0
    6.0474  -29.1178   -9.3166 C   0  0  0  0  0  0  0  0  0  0  0  0
    6.8269  -30.1847   -8.9664 C   0  0  0  0  0  0  0  0  0  0  0  0
   11.3867  -26.0337  -11.0826 C   0  0  0  0  0  0  0  0  0  0  0  0
   13.3398  -27.2169  -11.5158 C   0  0  0  0  0  0  0  0  0  0  0  0
   11.2188  -26.3525  -12.4123 C   0  0  0  0  0  0  0  0  0  0  0  0
    8.1582  -28.4364   -9.2526 C   0  0  0  0  0  0  0  0  0  0  0  0
   14.7012  -27.8708  -11.2593 C   0  0  0  0  0  0  0  0  0  0  0  0
    9.3456  -27.5468   -9.3269 C   0  0  0  0  0  0  0  0  0  0  0  0
    6.5499  -26.6848   -9.8865 C   0  0  0  0  0  0  0  0  0  0  0  0
    7.6637  -25.7202   -9.4865 C   0  0  0  0  0  0  0  0  0  0  0  0
    6.8945  -28.0421   -9.4856 N   0  0  0  0  0  0  0  0  0  0  0  0
    8.1243  -29.7361   -8.9349 N   0  3  0  0  0  0  0  0  0  0  0  0
    8.9745  -26.2562   -9.9707 N   0  0  1  0  0  0  0  0  0  0  0  0
   15.2332  -28.4586  -12.2388 O   0  5  0  0  0  0  0  0  0  0  0  0
   15.1639  -27.7612  -10.0924 O   0  0  0  0  0  0  0  0  0  0  0  0
   10.8400  -24.9218   -8.7939 O   0  0  0  0  0  0  0  0  0  0  0  0
    9.7865  -23.9882  -10.8835 O   0  0  0  0  0  0  0  0  0  0  0  0
   12.5390  -27.2521  -13.0290 S   0  0  0  0  0  0  0  0  0  0  0  0
   10.2437  -25.1156  -10.0988 S   0  0  0  0  0  0  0  0  0  0  0  0
    9.7216  -25.8800  -13.4900 Br  0  0  0  0  0  0  0  0  0  0  0  0
   12.9525  -26.4014   -9.5426 H   0  0  0  0  0  0  0  0  0  0  0  0
    4.9977  -28.9634   -9.4746 H   0  0  0  0  0  0  0  0  0  0  0  0
    6.6524  -31.2159   -8.7320 H   0  0  0  0  0  0  0  0  0  0  0  0
    9.6833  -27.3996   -8.2981 H   0  0  0  0  0  0  0  0  0  0  0  0
   10.0904  -28.0787   -9.9231 H   0  0  0  0  0  0  0  0  0  0  0  0
    5.6046  -26.3958   -9.4163 H   0  0  0  0  0  0  0  0  0  0  0  0
    6.4165  -26.6899  -10.9742 H   0  0  0  0  0  0  0  0  0  0  0  0
    7.4697  -24.7395   -9.9330 H   0  0  0  0  0  0  0  0  0  0  0  0
    7.7030  -25.6066   -8.3969 H   0  0  0  0  0  0  0  0  0  0  0  0
    8.9361  -30.3022   -8.7040 H   0  0  0  0  0  0  0  0  0  0  0  0
  1  4  1  0  0  0  0
  1  5  2  0  0  0  0
  2  3  2  0  0  0  0
  2 12  1  0  0  0  0
  3 13  1  0  0  0  0
  4  6  2  0  0  0  0
  4 20  1  0  0  0  0
  5  8  1  0  0  0  0
  5 19  1  0  0  0  0
  6 19  1  0  0  0  0
  6 21  1  0  0  0  0
  7  9  1  0  0  0  0
  7 12  1  0  0  0  0
  7 13  2  0  0  0  0
  8 15  1  0  0  0  0
  8 16  2  0  0  0  0
  9 14  1  0  0  0  0
 10 11  1  0  0  0  0
 10 12  1  0  0  0  0
 11 14  1  0  0  0  0
 14 20  1  0  0  0  0
 17 20  2  0  0  0  0
 18 20  2  0  0  0  0
  1 22  1  0  0  0  0
  2 23  1  0  0  0  0
  3 24  1  0  0  0  0
  9 25  1  0  0  0  0
  9 26  1  0  0  0  0
 10 27  1  0  0  0  0
 10 28  1  0  0  0  0
 11 29  1  0  0  0  0
 11 30  1  0  0  0  0
 13 31  1  0  0  0  0
M  CHG  2  13   1  15  -1
M  END
> <Hybrid2>
-5.350653171539307

> <Hybrid2>
-5.350653

$$$$
C62251786
  -OEChem-02152218483D

 31 33  0     1  0  0  0  0  0999 V2000
   12.2376  -26.6554  -10.3380 C   0  0  0  0  0  0  0  0  0  0  0  0
    5.6138  -29.1119   -9.1300 C   0  0  0  0  0  0  0  0  0  0  0  0
    6.3662  -30.2176   -8.8480 C   0  0  0  0  0  0  0  0  0  0  0  0
   11.0172  -26.0930  -10.8117 C   0  0  0  0  0  0  0  0  0  0  0  0
   12.9287  -27.3072  -11.3357 C   0  0  0  0  0  0  0  0  0  0  0  0
   10.8221  -26.3360  -12.1537 C   0  0  0  0  0  0  0  0  0  0  0  0
    7.7444  -28.4956   -9.0621 C   0  0  0  0  0  0  0  0  0  0  0  0
   14.2736  -28.0125  -11.1343 C   0  0  0  0  0  0  0  0  0  0  0  0
    8.9564  -27.6377   -9.1074 C   0  0  0  0  0  0  0  0  0  0  0  0
    6.1799  -26.6675   -9.5789 C   0  0  0  0  0  0  0  0  0  0  0  0
    7.3270  -25.7577   -9.1456 C   0  0  0  0  0  0  0  0  0  0  0  0
    6.4898  -28.0535   -9.2551 N   0  0  0  0  0  0  0  0  0  0  0  0
    7.6766  -29.8087   -8.8126 N   0  3  0  0  0  0  0  0  0  0  0  0
    8.6148  -26.3048   -9.6769 N   0  0  1  0  0  0  0  0  0  0  0  0
   14.7748  -28.5626  -12.1512 O   0  5  0  0  0  0  0  0  0  0  0  0
   14.7550  -27.9781   -9.9704 O   0  0  0  0  0  0  0  0  0  0  0  0
   10.5344  -25.0886   -8.4599 O   0  0  0  0  0  0  0  0  0  0  0  0
    9.4808  -24.0158  -10.4814 O   0  0  0  0  0  0  0  0  0  0  0  0
   12.1068  -27.2392  -12.8364 S   0  0  0  0  0  0  0  0  0  0  0  0
    9.9151  -25.1958   -9.7640 S   0  0  0  0  0  0  0  0  0  0  0  0
    9.3250  -25.7644  -13.1824 Br  0  0  0  0  0  0  0  0  0  0  0  0
   12.5921  -26.5864   -9.3168 H   0  0  0  0  0  0  0  0  0  0  0  0
    4.5670  -28.9193   -9.2639 H   0  0  0  0  0  0  0  0  0  0  0  0
    6.1646  -31.2544   -8.6655 H   0  0  0  0  0  0  0  0  0  0  0  0
    9.3121  -27.5549   -8.0775 H   0  0  0  0  0  0  0  0  0  0  0  0
    9.6770  -28.1585   -9.7418 H   0  0  0  0  0  0  0  0  0  0  0  0
    5.2500  -26.3768   -9.0800 H   0  0  0  0  0  0  0  0  0  0  0  0
    6.0318  -26.6112  -10.6633 H   0  0  0  0  0  0  0  0  0  0  0  0
    7.1559  -24.7496   -9.5370 H   0  0  0  0  0  0  0  0  0  0  0  0
    7.3842  -25.7031   -8.0523 H   0  0  0  0  0  0  0  0  0  0  0  0
    8.4744  -30.4093   -8.6239 H   0  0  0  0  0  0  0  0  0  0  0  0
  1  4  1  0  0  0  0
  1  5  2  0  0  0  0
  2  3  2  0  0  0  0
  2 12  1  0  0  0  0
  3 13  1  0  0  0  0
  4  6  2  0  0  0  0
  4 20  1  0  0  0  0
  5  8  1  0  0  0  0
  5 19  1  0  0  0  0
  6 19  1  0  0  0  0
  6 21  1  0  0  0  0
  7  9  1  0  0  0  0
  7 12  1  0  0  0  0
  7 13  2  0  0  0  0
  8 15  1  0  0  0  0
  8 16  2  0  0  0  0
  9 14  1  0  0  0  0
 10 11  1  0  0  0  0
 10 12  1  0  0  0  0
 11 14  1  0  0  0  0
 14 20  1  0  0  0  0
 17 20  2  0  0  0  0
 18 20  2  0  0  0  0
  1 22  1  0  0  0  0
  2 23  1  0  0  0  0
  3 24  1  0  0  0  0
  9 25  1  0  0  0  0
  9 26  1  0  0  0  0
 10 27  1  0  0  0  0
 10 28  1  0  0  0  0
 11 29  1  0  0  0  0
 11 30  1  0  0  0  0
 13 31  1  0  0  0  0
M  CHG  2  13   1  15  -1
M  END
> <Hybrid2>
-5.350653171539307

> <Hybrid2>
-5.113606

$$$$
C62436373
  -OEChem-02152218483D

 56 59  0     1  0  0  0  0  0999 V2000
   14.4652  -28.3877  -11.3246 C   0  0  0  0  0  0  0  0  0  0  0  0
   13.8265  -29.4819  -11.9093 C   0  0  0  0  0  0  0  0  0  0  0  0
   13.7985  -27.1665  -11.2038 C   0  0  0  0  0  0  0  0  0  0  0  0
   12.5181  -29.3611  -12.3761 C   0  0  0  0  0  0  0  0  0  0  0  0
   12.4867  -27.0369  -11.6696 C   0  0  0  0  0  0  0  0  0  0  0  0
   11.8535  -28.1391  -12.2545 C   0  0  0  0  0  0  0  0  0  0  0  0
   11.7569  -25.7744  -11.5602 C   0  0  0  0  0  0  0  0  0  0  0  0
   10.5013  -25.6755  -12.0135 C   0  0  0  0  0  0  0  0  0  0  0  0
    9.8075  -26.8379  -12.6406 C   0  0  0  0  0  0  0  0  0  0  0  0
    9.7949  -24.4307  -11.9004 C   0  0  0  0  0  0  0  0  0  0  0  0
    9.5478  -23.8371  -10.7280 C   0  0  0  0  0  0  0  0  0  0  0  0
    8.8077  -22.5519  -10.7249 C   0  0  0  0  0  0  0  0  0  0  0  0
    6.6449  -24.7335  -10.1212 C   0  0  0  0  0  0  0  0  0  0  0  0
    5.5273  -21.9763   -9.0981 C   0  0  0  0  0  0  0  0  0  0  0  0
    6.1382  -23.1079   -8.2741 C   0  0  0  0  0  0  0  0  0  0  0  0
    6.4720  -27.4038   -7.6684 C   0  0  0  0  0  0  0  0  0  0  0  0
    5.3247  -28.0476   -9.8176 C   0  0  0  0  0  0  0  0  0  0  0  0
    6.7153  -21.4244   -9.8715 C   0  0  0  0  0  0  0  0  0  0  0  0
    7.4149  -26.5070   -8.4690 C   0  0  0  0  0  0  0  0  0  0  0  0
    6.2918  -27.1399  -10.5740 C   0  0  0  0  0  0  0  0  0  0  0  0
    7.2065  -23.6829   -9.1968 C   0  0  2  0  0  0  0  0  0  0  0  0
    5.9566  -28.5739   -8.5201 C   0  0  0  0  0  0  0  0  0  0  0  0
    4.9584  -29.4201   -7.7336 C   0  0  0  0  0  0  0  0  0  0  0  0
   10.5343  -28.0104  -12.7231 N   0  0  0  0  0  0  0  0  0  0  0  0
    7.6194  -22.5602  -10.0259 N   0  0  0  0  0  0  0  0  0  0  0  0
    6.7769  -26.0602   -9.7129 N   0  0  0  0  0  0  0  0  0  0  0  0
    8.6536  -26.7492  -13.0580 O   0  0  0  0  0  0  0  0  0  0  0  0
    9.3215  -21.6237  -11.3326 O   0  0  0  0  0  0  0  0  0  0  0  0
    6.1036  -24.3835  -11.1731 O   0  0  0  0  0  0  0  0  0  0  0  0
   15.4845  -28.4860  -10.9621 H   0  0  0  0  0  0  0  0  0  0  0  0
   14.3497  -30.4294  -12.0007 H   0  0  0  0  0  0  0  0  0  0  0  0
   14.3131  -26.3257  -10.7454 H   0  0  0  0  0  0  0  0  0  0  0  0
   12.0301  -30.2195  -12.8296 H   0  0  0  0  0  0  0  0  0  0  0  0
   12.2706  -24.9342  -11.1023 H   0  0  0  0  0  0  0  0  0  0  0  0
    9.4640  -23.9879  -12.8356 H   0  0  0  0  0  0  0  0  0  0  0  0
    9.8611  -24.2474   -9.7757 H   0  0  0  0  0  0  0  0  0  0  0  0
    4.7743  -22.3721   -9.7894 H   0  0  0  0  0  0  0  0  0  0  0  0
    5.0507  -21.2189   -8.4693 H   0  0  0  0  0  0  0  0  0  0  0  0
    6.6112  -22.6961   -7.3751 H   0  0  0  0  0  0  0  0  0  0  0  0
    5.3809  -23.8357   -7.9685 H   0  0  0  0  0  0  0  0  0  0  0  0
    7.0001  -27.7897   -6.7884 H   0  0  0  0  0  0  0  0  0  0  0  0
    5.6295  -26.8054   -7.2982 H   0  0  0  0  0  0  0  0  0  0  0  0
    4.4058  -27.4913   -9.5918 H   0  0  0  0  0  0  0  0  0  0  0  0
    5.0386  -28.8887  -10.4604 H   0  0  0  0  0  0  0  0  0  0  0  0
    6.4240  -21.0222  -10.8459 H   0  0  0  0  0  0  0  0  0  0  0  0
    7.2379  -20.6490   -9.3007 H   0  0  0  0  0  0  0  0  0  0  0  0
    7.7316  -25.6686   -7.8463 H   0  0  0  0  0  0  0  0  0  0  0  0
    8.3191  -27.0599   -8.7504 H   0  0  0  0  0  0  0  0  0  0  0  0
    7.1668  -27.7077  -10.9118 H   0  0  0  0  0  0  0  0  0  0  0  0
    5.7995  -26.7379  -11.4650 H   0  0  0  0  0  0  0  0  0  0  0  0
    8.0573  -24.1104   -8.6577 H   0  0  0  0  0  0  0  0  0  0  0  0
    6.8098  -29.2131   -8.7840 H   0  0  0  0  0  0  0  0  0  0  0  0
    4.0976  -28.8137   -7.4558 H   0  0  0  0  0  0  0  0  0  0  0  0
    5.4301  -29.8040   -6.8303 H   0  0  0  0  0  0  0  0  0  0  0  0
    4.6223  -30.2575   -8.3435 H   0  0  0  0  0  0  0  0  0  0  0  0
   10.0964  -28.8250  -13.1439 H   0  0  0  0  0  0  0  0  0  0  0  0
  1  2  1  0  0  0  0
  1  3  2  0  0  0  0
  2  4  2  0  0  0  0
  3  5  1  0  0  0  0
  4  6  1  0  0  0  0
  5  6  2  0  0  0  0
  5  7  1  0  0  0  0
  6 24  1  0  0  0  0
  7  8  2  0  0  0  0
  8  9  1  0  0  0  0
  8 10  1  0  0  0  0
  9 24  1  0  0  0  0
  9 27  2  0  0  0  0
 10 11  2  0  0  0  0
 11 12  1  0  0  0  0
 12 25  1  0  0  0  0
 12 28  2  0  0  0  0
 13 21  1  0  0  0  0
 13 26  1  0  0  0  0
 13 29  2  0  0  0  0
 14 15  1  0  0  0  0
 14 18  1  0  0  0  0
 15 21  1  0  0  0  0
 16 19  1  0  0  0  0
 16 22  1  0  0  0  0
 17 20  1  0  0  0  0
 17 22  1  0  0  0  0
 18 25  1  0  0  0  0
 19 26  1  0  0  0  0
 20 26  1  0  0  0  0
 21 25  1  0  0  0  0
 22 23  1  0  0  0  0
  1 30  1  0  0  0  0
  2 31  1  0  0  0  0
  3 32  1  0  0  0  0
  4 33  1  0  0  0  0
  7 34  1  0  0  0  0
 10 35  1  0  0  0  0
 11 36  1  0  0  0  0
 14 37  1  0  0  0  0
 14 38  1  0  0  0  0
 15 39  1  0  0  0  0
 15 40  1  0  0  0  0
 16 41  1  0  0  0  0
 16 42  1  0  0  0  0
 17 43  1  0  0  0  0
 17 44  1  0  0  0  0
 18 45  1  0  0  0  0
 18 46  1  0  0  0  0
 19 47  1  0  0  0  0
 19 48  1  0  0  0  0
 20 49  1  0  0  0  0
 20 50  1  0  0  0  0
 21 51  1  0  0  0  0
 22 52  1  0  0  0  0
 23 53  1  0  0  0  0
 23 54  1  0  0  0  0
 23 55  1  0  0  0  0
 24 56  1  0  0  0  0
M  END
> <Hybrid2>
-3.266785144805908

> <Hybrid2>
-3.266785

$$$$
C62436373
  -OEChem-02152218483D

 56 59  0     1  0  0  0  0  0999 V2000
   14.9519  -28.6873  -10.9416 C   0  0  0  0  0  0  0  0  0  0  0  0
   14.3132  -29.7815  -11.5263 C   0  0  0  0  0  0  0  0  0  0  0  0
   14.2852  -27.4661  -10.8208 C   0  0  0  0  0  0  0  0  0  0  0  0
   13.0047  -29.6607  -11.9931 C   0  0  0  0  0  0  0  0  0  0  0  0
   12.9734  -27.3365  -11.2865 C   0  0  0  0  0  0  0  0  0  0  0  0
   12.3402  -28.4387  -11.8715 C   0  0  0  0  0  0  0  0  0  0  0  0
   12.2436  -26.0740  -11.1772 C   0  0  0  0  0  0  0  0  0  0  0  0
   10.9879  -25.9750  -11.6305 C   0  0  0  0  0  0  0  0  0  0  0  0
   10.2941  -27.1374  -12.2576 C   0  0  0  0  0  0  0  0  0  0  0  0
   10.2815  -24.7303  -11.5174 C   0  0  0  0  0  0  0  0  0  0  0  0
   10.0345  -24.1367  -10.3450 C   0  0  0  0  0  0  0  0  0  0  0  0
    9.2944  -22.8515  -10.3419 C   0  0  0  0  0  0  0  0  0  0  0  0
    7.1316  -25.0331   -9.7382 C   0  0  0  0  0  0  0  0  0  0  0  0
    6.0140  -22.2759   -8.7151 C   0  0  0  0  0  0  0  0  0  0  0  0
    6.6249  -23.4075   -7.8911 C   0  0  0  0  0  0  0  0  0  0  0  0
    6.9586  -27.7034   -7.2854 C   0  0  0  0  0  0  0  0  0  0  0  0
    5.8113  -28.3472   -9.4345 C   0  0  0  0  0  0  0  0  0  0  0  0
    7.2019  -21.7240   -9.4884 C   0  0  0  0  0  0  0  0  0  0  0  0
    7.9015  -26.8066   -8.0860 C   0  0  0  0  0  0  0  0  0  0  0  0
    6.7784  -27.4395  -10.1910 C   0  0  0  0  0  0  0  0  0  0  0  0
    7.6931  -23.9825   -8.8137 C   0  0  2  0  0  0  0  0  0  0  0  0
    6.4433  -28.8735   -8.1370 C   0  0  0  0  0  0  0  0  0  0  0  0
    5.4451  -29.7197   -7.3506 C   0  0  0  0  0  0  0  0  0  0  0  0
   11.0209  -28.3100  -12.3401 N   0  0  0  0  0  0  0  0  0  0  0  0
    8.1060  -22.8598   -9.6429 N   0  0  0  0  0  0  0  0  0  0  0  0
    7.2635  -26.3598   -9.3298 N   0  0  0  0  0  0  0  0  0  0  0  0
    9.1403  -27.0488  -12.6750 O   0  0  0  0  0  0  0  0  0  0  0  0
    9.8082  -21.9233  -10.9496 O   0  0  0  0  0  0  0  0  0  0  0  0
    6.5902  -24.6831  -10.7901 O   0  0  0  0  0  0  0  0  0  0  0  0
   15.9712  -28.7856  -10.5791 H   0  0  0  0  0  0  0  0  0  0  0  0
   14.8363  -30.7290  -11.6176 H   0  0  0  0  0  0  0  0  0  0  0  0
   14.7998  -26.6253  -10.3623 H   0  0  0  0  0  0  0  0  0  0  0  0
   12.5167  -30.5191  -12.4466 H   0  0  0  0  0  0  0  0  0  0  0  0
   12.7573  -25.2338  -10.7193 H   0  0  0  0  0  0  0  0  0  0  0  0
    9.9506  -24.2875  -12.4526 H   0  0  0  0  0  0  0  0  0  0  0  0
   10.3477  -24.5470   -9.3927 H   0  0  0  0  0  0  0  0  0  0  0  0
    5.2610  -22.6717   -9.4064 H   0  0  0  0  0  0  0  0  0  0  0  0
    5.5374  -21.5184   -8.0863 H   0  0  0  0  0  0  0  0  0  0  0  0
    7.0979  -22.9957   -6.9920 H   0  0  0  0  0  0  0  0  0  0  0  0
    5.8676  -24.1353   -7.5855 H   0  0  0  0  0  0  0  0  0  0  0  0
    7.4867  -28.0893   -6.4054 H   0  0  0  0  0  0  0  0  0  0  0  0
    6.1162  -27.1050   -6.9152 H   0  0  0  0  0  0  0  0  0  0  0  0
    4.8924  -27.7909   -9.2088 H   0  0  0  0  0  0  0  0  0  0  0  0
    5.5253  -29.1883  -10.0774 H   0  0  0  0  0  0  0  0  0  0  0  0
    6.9106  -21.3217  -10.4629 H   0  0  0  0  0  0  0  0  0  0  0  0
    7.7245  -20.9486   -8.9177 H   0  0  0  0  0  0  0  0  0  0  0  0
    8.2183  -25.9682   -7.4633 H   0  0  0  0  0  0  0  0  0  0  0  0
    8.8058  -27.3595   -8.3673 H   0  0  0  0  0  0  0  0  0  0  0  0
    7.6535  -28.0073  -10.5288 H   0  0  0  0  0  0  0  0  0  0  0  0
    6.2861  -27.0375  -11.0820 H   0  0  0  0  0  0  0  0  0  0  0  0
    8.5440  -24.4100   -8.2747 H   0  0  0  0  0  0  0  0  0  0  0  0
    7.2964  -29.5127   -8.4010 H   0  0  0  0  0  0  0  0  0  0  0  0
    4.5843  -29.1133   -7.0727 H   0  0  0  0  0  0  0  0  0  0  0  0
    5.9167  -30.1036   -6.4472 H   0  0  0  0  0  0  0  0  0  0  0  0
    5.1090  -30.5571   -7.9604 H   0  0  0  0  0  0  0  0  0  0  0  0
   10.5831  -29.1246  -12.7608 H   0  0  0  0  0  0  0  0  0  0  0  0
  1  2  1  0  0  0  0
  1  3  2  0  0  0  0
  2  4  2  0  0  0  0
  3  5  1  0  0  0  0
  4  6  1  0  0  0  0
  5  6  2  0  0  0  0
  5  7  1  0  0  0  0
  6 24  1  0  0  0  0
  7  8  2  0  0  0  0
  8  9  1  0  0  0  0
  8 10  1  0  0  0  0
  9 24  1  0  0  0  0
  9 27  2  0  0  0  0
 10 11  2  0  0  0  0
 11 12  1  0  0  0  0
 12 25  1  0  0  0  0
 12 28  2  0  0  0  0
 13 21  1  0  0  0  0
 13 26  1  0  0  0  0
 13 29  2  0  0  0  0
 14 15  1  0  0  0  0
 14 18  1  0  0  0  0
 15 21  1  0  0  0  0
 16 19  1  0  0  0  0
 16 22  1  0  0  0  0
 17 20  1  0  0  0  0
 17 22  1  0  0  0  0
 18 25  1  0  0  0  0
 19 26  1  0  0  0  0
 20 26  1  0  0  0  0
 21 25  1  0  0  0  0
 22 23  1  0  0  0  0
  1 30  1  0  0  0  0
  2 31  1  0  0  0  0
  3 32  1  0  0  0  0
  4 33  1  0  0  0  0
  7 34  1  0  0  0  0
 10 35  1  0  0  0  0
 11 36  1  0  0  0  0
 14 37  1  0  0  0  0
 14 38  1  0  0  0  0
 15 39  1  0  0  0  0
 15 40  1  0  0  0  0
 16 41  1  0  0  0  0
 16 42  1  0  0  0  0
 17 43  1  0  0  0  0
 17 44  1  0  0  0  0
 18 45  1  0  0  0  0
 18 46  1  0  0  0  0
 19 47  1  0  0  0  0
 19 48  1  0  0  0  0
 20 49  1  0  0  0  0
 20 50  1  0  0  0  0
 21 51  1  0  0  0  0
 22 52  1  0  0  0  0
 23 53  1  0  0  0  0
 23 54  1  0  0  0  0
 23 55  1  0  0  0  0
 24 56  1  0  0  0  0
M  END
> <Hybrid2>
-3.266785144805908

> <Hybrid2>
-1.449266

$$$$
C62688901
  -OEChem-02152218483D

 44 47  0     1  0  0  0  0  0999 V2000
   13.9268  -27.5003  -11.2261 C   0  0  0  0  0  0  0  0  0  0  0  0
   14.6793  -26.4158  -11.6769 C   0  0  0  0  0  0  0  0  0  0  0  0
   12.5483  -27.5287  -11.4375 C   0  0  0  0  0  0  0  0  0  0  0  0
    8.2761  -28.9959   -9.0996 C   0  0  0  0  0  0  0  0  0  0  0  0
   14.0533  -25.3597  -12.3391 C   0  0  0  0  0  0  0  0  0  0  0  0
    9.1638  -27.9669   -9.4152 C   0  0  0  0  0  0  0  0  0  0  0  0
    7.3532  -26.3671   -9.3239 C   0  0  0  0  0  0  0  0  0  0  0  0
   11.9223  -26.4726  -12.0996 C   0  0  0  0  0  0  0  0  0  0  0  0
    6.9274  -28.7081   -8.8883 C   0  0  0  0  0  0  0  0  0  0  0  0
    6.4623  -27.3974   -9.0218 C   0  0  0  0  0  0  0  0  0  0  0  0
   12.6748  -25.3881  -12.5504 C   0  0  0  0  0  0  0  0  0  0  0  0
    8.7041  -26.6540   -9.5221 C   0  0  0  0  0  0  0  0  0  0  0  0
   10.1391  -26.6096  -13.8228 C   0  0  0  0  0  0  0  0  0  0  0  0
    8.4951  -24.7471  -13.6172 C   0  0  0  0  0  0  0  0  0  0  0  0
    8.3586  -25.1194  -12.1600 C   0  0  0  0  0  0  0  0  0  0  0  0
    4.8546  -29.3119   -8.0366 C   0  0  0  0  0  0  0  0  0  0  0  0
    4.2887  -28.2014   -8.9001 C   0  0  0  0  0  0  0  0  0  0  0  0
   10.4197  -26.5074  -12.3282 C   0  0  2  0  0  0  0  0  0  0  0  0
    9.1780  -25.7834  -14.3539 N   0  0  0  0  0  0  0  0  0  0  0  0
    9.7207  -25.3795  -11.6311 N   0  0  2  0  0  0  0  0  0  0  0  0
   10.7343  -27.4323  -14.5249 O   0  0  0  0  0  0  0  0  0  0  0  0
    9.2712  -24.1156   -9.4295 O   0  0  0  0  0  0  0  0  0  0  0  0
   11.1584  -25.7817   -9.5313 O   0  0  0  0  0  0  0  0  0  0  0  0
    6.1084  -29.7573   -8.5614 O   0  0  0  0  0  0  0  0  0  0  0  0
    5.1449  -27.0566   -8.8590 O   0  0  0  0  0  0  0  0  0  0  0  0
   12.0823  -24.3688  -13.1878 F   0  0  0  0  0  0  0  0  0  0  0  0
    9.8321  -25.3556   -9.9133 S   0  0  0  0  0  0  0  0  0  0  0  0
   14.4141  -28.3226  -10.7099 H   0  0  0  0  0  0  0  0  0  0  0  0
   15.7524  -26.3934  -11.5118 H   0  0  0  0  0  0  0  0  0  0  0  0
   11.9701  -28.3775  -11.0820 H   0  0  0  0  0  0  0  0  0  0  0  0
    8.6440  -30.0145   -9.0108 H   0  0  0  0  0  0  0  0  0  0  0  0
   14.6390  -24.5153  -12.6906 H   0  0  0  0  0  0  0  0  0  0  0  0
   10.2138  -28.1995   -9.5724 H   0  0  0  0  0  0  0  0  0  0  0  0
    6.9917  -25.3458   -9.4142 H   0  0  0  0  0  0  0  0  0  0  0  0
    7.5144  -24.5959  -14.0782 H   0  0  0  0  0  0  0  0  0  0  0  0
    9.0791  -23.8281  -13.7380 H   0  0  0  0  0  0  0  0  0  0  0  0
    7.9014  -24.2845  -11.6183 H   0  0  0  0  0  0  0  0  0  0  0  0
    7.7267  -26.0052  -12.0294 H   0  0  0  0  0  0  0  0  0  0  0  0
    5.0050  -28.9817   -7.0012 H   0  0  0  0  0  0  0  0  0  0  0  0
    4.1743  -30.1693   -8.0258 H   0  0  0  0  0  0  0  0  0  0  0  0
    4.1770  -28.5187   -9.9442 H   0  0  0  0  0  0  0  0  0  0  0  0
    3.3055  -27.8954   -8.5290 H   0  0  0  0  0  0  0  0  0  0  0  0
   10.0411  -27.4504  -11.8910 H   0  0  0  0  0  0  0  0  0  0  0  0
    8.9316  -25.9105  -15.3307 H   0  0  0  0  0  0  0  0  0  0  0  0
  1  2  1  0  0  0  0
  1  3  2  0  0  0  0
  2  5  2  0  0  0  0
  3  8  1  0  0  0  0
  4  6  2  0  0  0  0
  4  9  1  0  0  0  0
  5 11  1  0  0  0  0
  6 12  1  0  0  0  0
  7 10  1  0  0  0  0
  7 12  2  0  0  0  0
  8 11  2  0  0  0  0
  8 18  1  0  0  0  0
  9 10  2  0  0  0  0
  9 24  1  0  0  0  0
 10 25  1  0  0  0  0
 11 26  1  0  0  0  0
 12 27  1  0  0  0  0
 13 18  1  0  0  0  0
 13 19  1  0  0  0  0
 13 21  2  0  0  0  0
 14 15  1  0  0  0  0
 14 19  1  0  0  0  0
 15 20  1  0  0  0  0
 16 17  1  0  0  0  0
 16 24  1  0  0  0  0
 17 25  1  0  0  0  0
 18 20  1  0  0  0  0
 20 27  1  0  0  0  0
 22 27  2  0  0  0  0
 23 27  2  0  0  0  0
  1 28  1  0  0  0  0
  2 29  1  0  0  0  0
  3 30  1  0  0  0  0
  4 31  1  0  0  0  0
  5 32  1  0  0  0  0
  6 33  1  0  0  0  0
  7 34  1  0  0  0  0
 14 35  1  0  0  0  0
 14 36  1  0  0  0  0
 15 37  1  0  0  0  0
 15 38  1  0  0  0  0
 16 39  1  0  0  0  0
 16 40  1  0  0  0  0
 17 41  1  0  0  0  0
 17 42  1  0  0  0  0
 18 43  1  0  0  0  0
 19 44  1  0  0  0  0
M  END
> <Hybrid2>
-4.9803147315979

> <Hybrid2>
-4.980315

$$$$
C62688901
  -OEChem-02152218483D

 44 47  0     1  0  0  0  0  0999 V2000
   13.5469  -29.0289  -10.3501 C   0  0  0  0  0  0  0  0  0  0  0  0
   14.6676  -28.2857  -10.7206 C   0  0  0  0  0  0  0  0  0  0  0  0
   12.2708  -28.5892  -10.7023 C   0  0  0  0  0  0  0  0  0  0  0  0
    6.3988  -26.2812   -8.9213 C   0  0  0  0  0  0  0  0  0  0  0  0
   14.5122  -27.1027  -11.4431 C   0  0  0  0  0  0  0  0  0  0  0  0
    7.6192  -25.6383   -9.1302 C   0  0  0  0  0  0  0  0  0  0  0  0
    8.7643  -27.7657   -9.0353 C   0  0  0  0  0  0  0  0  0  0  0  0
   12.1154  -27.4062  -11.4248 C   0  0  0  0  0  0  0  0  0  0  0  0
    6.3611  -27.6684   -8.7774 C   0  0  0  0  0  0  0  0  0  0  0  0
    7.5459  -28.4080   -8.8127 C   0  0  0  0  0  0  0  0  0  0  0  0
   13.2361  -26.6629  -11.7952 C   0  0  0  0  0  0  0  0  0  0  0  0
    8.7994  -26.3799   -9.1922 C   0  0  0  0  0  0  0  0  0  0  0  0
   10.5703  -26.9823  -13.3224 C   0  0  0  0  0  0  0  0  0  0  0  0
    9.6593  -24.6623  -13.2861 C   0  0  0  0  0  0  0  0  0  0  0  0
    9.2624  -24.9136  -11.8509 C   0  0  0  0  0  0  0  0  0  0  0  0
    5.1677  -29.6587   -8.8059 C   0  0  0  0  0  0  0  0  0  0  0  0
    6.3580  -30.2657   -8.0891 C   0  0  0  0  0  0  0  0  0  0  0  0
   10.7229  -26.9304  -11.8068 C   0  0  2  0  0  0  0  0  0  0  0  0
   10.0100  -25.8953  -13.9492 N   0  0  0  0  0  0  0  0  0  0  0  0
   10.3927  -25.6073  -11.1848 N   0  0  2  0  0  0  0  0  0  0  0  0
   10.9096  -27.9836  -13.9599 O   0  0  0  0  0  0  0  0  0  0  0  0
   10.1968  -24.1895   -9.0405 O   0  0  0  0  0  0  0  0  0  0  0  0
   11.3925  -26.4052   -8.9484 O   0  0  0  0  0  0  0  0  0  0  0  0
    5.1310  -28.2445   -8.5951 O   0  0  0  0  0  0  0  0  0  0  0  0
    7.5779  -29.7679   -8.6453 O   0  0  0  0  0  0  0  0  0  0  0  0
   13.0968  -25.5251  -12.4897 F   0  0  0  0  0  0  0  0  0  0  0  0
   10.3388  -25.5629   -9.4647 S   0  0  0  0  0  0  0  0  0  0  0  0
   13.6677  -29.9500   -9.7870 H   0  0  0  0  0  0  0  0  0  0  0  0
   15.6611  -28.6277  -10.4459 H   0  0  0  0  0  0  0  0  0  0  0  0
   11.4035  -29.1745  -10.4087 H   0  0  0  0  0  0  0  0  0  0  0  0
    5.4835  -25.6968   -8.8820 H   0  0  0  0  0  0  0  0  0  0  0  0
   15.3846  -26.5239  -11.7320 H   0  0  0  0  0  0  0  0  0  0  0  0
    7.6384  -24.5579   -9.2471 H   0  0  0  0  0  0  0  0  0  0  0  0
    9.6838  -28.3444   -9.0758 H   0  0  0  0  0  0  0  0  0  0  0  0
    8.8407  -24.1994  -13.8455 H   0  0  0  0  0  0  0  0  0  0  0  0
   10.5337  -24.0048  -13.3457 H   0  0  0  0  0  0  0  0  0  0  0  0
    9.0716  -23.9540  -11.3587 H   0  0  0  0  0  0  0  0  0  0  0  0
    8.3538  -25.5231  -11.7865 H   0  0  0  0  0  0  0  0  0  0  0  0
    5.2046  -29.8517   -9.8853 H   0  0  0  0  0  0  0  0  0  0  0  0
    4.2348  -30.0782   -8.4161 H   0  0  0  0  0  0  0  0  0  0  0  0
    6.3427  -30.0377   -7.0163 H   0  0  0  0  0  0  0  0  0  0  0  0
    6.3579  -31.3538   -8.2072 H   0  0  0  0  0  0  0  0  0  0  0  0
   10.0014  -27.6699  -11.4114 H   0  0  0  0  0  0  0  0  0  0  0  0
    9.8306  -25.9642  -14.9462 H   0  0  0  0  0  0  0  0  0  0  0  0
  1  2  1  0  0  0  0
  1  3  2  0  0  0  0
  2  5  2  0  0  0  0
  3  8  1  0  0  0  0
  4  6  2  0  0  0  0
  4  9  1  0  0  0  0
  5 11  1  0  0  0  0
  6 12  1  0  0  0  0
  7 10  1  0  0  0  0
  7 12  2  0  0  0  0
  8 11  2  0  0  0  0
  8 18  1  0  0  0  0
  9 10  2  0  0  0  0
  9 24  1  0  0  0  0
 10 25  1  0  0  0  0
 11 26  1  0  0  0  0
 12 27  1  0  0  0  0
 13 18  1  0  0  0  0
 13 19  1  0  0  0  0
 13 21  2  0  0  0  0
 14 15  1  0  0  0  0
 14 19  1  0  0  0  0
 15 20  1  0  0  0  0
 16 17  1  0  0  0  0
 16 24  1  0  0  0  0
 17 25  1  0  0  0  0
 18 20  1  0  0  0  0
 20 27  1  0  0  0  0
 22 27  2  0  0  0  0
 23 27  2  0  0  0  0
  1 28  1  0  0  0  0
  2 29  1  0  0  0  0
  3 30  1  0  0  0  0
  4 31  1  0  0  0  0
  5 32  1  0  0  0  0
  6 33  1  0  0  0  0
  7 34  1  0  0  0  0
 14 35  1  0  0  0  0
 14 36  1  0  0  0  0
 15 37  1  0  0  0  0
 15 38  1  0  0  0  0
 16 39  1  0  0  0  0
 16 40  1  0  0  0  0
 17 41  1  0  0  0  0
 17 42  1  0  0  0  0
 18 43  1  0  0  0  0
 19 44  1  0  0  0  0
M  END
> <Hybrid2>
-4.9803147315979

> <Hybrid2>
-4.726591

$$$$
C64481677
  -OEChem-02152218483D

 39 41  0     1  0  0  0  0  0999 V2000
   10.3036  -26.3116  -14.8953 C   0  0  0  0  0  0  0  0  0  0  0  0
   11.0674  -25.9287  -14.0516 C   0  0  0  0  0  0  0  0  0  0  0  0
    5.1486  -25.6513   -9.3241 C   0  0  0  0  0  0  0  0  0  0  0  0
    5.6811  -24.8407  -10.3267 C   0  0  0  0  0  0  0  0  0  0  0  0
    7.7916  -26.0027  -10.1452 C   0  0  0  0  0  0  0  0  0  0  0  0
    7.2591  -26.8132   -9.1426 C   0  0  0  0  0  0  0  0  0  0  0  0
    5.9377  -26.6375   -8.7320 C   0  0  0  0  0  0  0  0  0  0  0  0
    7.0025  -25.0164  -10.7372 C   0  0  0  0  0  0  0  0  0  0  0  0
    9.5311  -28.3888  -10.5444 C   0  0  0  0  0  0  0  0  0  0  0  0
   10.3201  -26.6146   -8.9684 C   0  0  0  0  0  0  0  0  0  0  0  0
    7.4903  -29.7291  -10.1348 C   0  0  0  0  0  0  0  0  0  0  0  0
   11.3597  -27.1004  -10.9786 C   0  0  0  0  0  0  0  0  0  0  0  0
    7.4891  -29.2565   -8.6971 C   0  0  0  0  0  0  0  0  0  0  0  0
    8.1214  -27.8677   -8.5168 C   0  0  1  0  0  0  0  0  0  0  0  0
    9.5373  -27.9057   -9.1222 C   0  0  1  0  0  0  0  0  0  0  0  0
    4.0433  -27.1719   -7.3972 C   0  0  0  0  0  0  0  0  0  0  0  0
   11.9974  -25.4534  -13.0246 C   0  0  0  0  0  0  0  0  0  0  0  0
   10.4198  -28.0079  -11.4001 N   0  0  0  0  0  0  0  0  0  0  0  0
   11.3436  -26.4305   -9.8694 N   0  0  0  0  0  0  0  0  0  0  0  0
    8.5445  -29.2756  -10.9157 N   0  0  0  0  0  0  0  0  0  0  0  0
   10.0994  -25.8348   -8.0449 O   0  0  0  0  0  0  0  0  0  0  0  0
    6.6341  -30.5076  -10.5542 O   0  0  0  0  0  0  0  0  0  0  0  0
    5.4014  -27.4207   -7.7546 O   0  0  0  0  0  0  0  0  0  0  0  0
   12.7080  -26.8107  -12.0752 S   0  0  0  0  0  0  0  0  0  0  0  0
    7.7233  -23.9179  -12.0962 Br  0  0  0  0  0  0  0  0  0  0  0  0
    9.6262  -26.6516  -15.6432 H   0  0  0  0  0  0  0  0  0  0  0  0
    4.1189  -25.5089   -9.0080 H   0  0  0  0  0  0  0  0  0  0  0  0
    5.0527  -24.0774  -10.7782 H   0  0  0  0  0  0  0  0  0  0  0  0
    8.8225  -26.1445  -10.4618 H   0  0  0  0  0  0  0  0  0  0  0  0
    6.4521  -29.2500   -8.3400 H   0  0  0  0  0  0  0  0  0  0  0  0
    8.0395  -30.0005   -8.1084 H   0  0  0  0  0  0  0  0  0  0  0  0
    8.1803  -27.6383   -7.4464 H   0  0  0  0  0  0  0  0  0  0  0  0
   10.1186  -28.6548   -8.5623 H   0  0  0  0  0  0  0  0  0  0  0  0
    3.7408  -27.8644   -6.6079 H   0  0  0  0  0  0  0  0  0  0  0  0
    3.4051  -27.3017   -8.2749 H   0  0  0  0  0  0  0  0  0  0  0  0
    3.9539  -26.1459   -7.0326 H   0  0  0  0  0  0  0  0  0  0  0  0
   11.4860  -24.7790  -12.3309 H   0  0  0  0  0  0  0  0  0  0  0  0
   12.8168  -24.8937  -13.4864 H   0  0  0  0  0  0  0  0  0  0  0  0
    8.5655  -29.6018  -11.8779 H   0  0  0  0  0  0  0  0  0  0  0  0
  1  2  3  0  0  0  0
  2 17  1  0  0  0  0
  3  4  2  0  0  0  0
  3  7  1  0  0  0  0
  4  8  1  0  0  0  0
  5  6  1  0  0  0  0
  5  8  2  0  0  0  0
  6  7  2  0  0  0  0
  6 14  1  0  0  0  0
  7 23  1  0  0  0  0
  8 25  1  0  0  0  0
  9 15  1  0  0  0  0
  9 18  2  0  0  0  0
  9 20  1  0  0  0  0
 10 15  1  0  0  0  0
 10 19  1  0  0  0  0
 10 21  2  0  0  0  0
 11 13  1  0  0  0  0
 11 20  1  0  0  0  0
 11 22  2  0  0  0  0
 12 18  1  0  0  0  0
 12 19  2  0  0  0  0
 12 24  1  0  0  0  0
 13 14  1  0  0  0  0
 14 15  1  0  0  0  0
 16 23  1  0  0  0  0
 17 24  1  0  0  0  0
  1 26  1  0  0  0  0
  3 27  1  0  0  0  0
  4 28  1  0  0  0  0
  5 29  1  0  0  0  0
 13 30  1  0  0  0  0
 13 31  1  0  0  0  0
 14 32  1  0  0  0  0
 15 33  1  0  0  0  0
 16 34  1  0  0  0  0
 16 35  1  0  0  0  0
 16 36  1  0  0  0  0
 17 37  1  0  0  0  0
 17 38  1  0  0  0  0
 20 39  1  0  0  0  0
M  END
> <Hybrid2>
-2.3985776901245117

> <Hybrid2>
-2.398578

$$$$
C64481677
  -OEChem-02152218483D

 39 41  0     1  0  0  0  0  0999 V2000
    5.2378  -28.3999   -7.7565 C   0  0  0  0  0  0  0  0  0  0  0  0
    4.9410  -27.7345   -8.7108 C   0  0  0  0  0  0  0  0  0  0  0  0
   13.1187  -26.7729  -13.0582 C   0  0  0  0  0  0  0  0  0  0  0  0
   12.2173  -26.2078  -13.9603 C   0  0  0  0  0  0  0  0  0  0  0  0
   10.5222  -26.1642  -12.2394 C   0  0  0  0  0  0  0  0  0  0  0  0
   11.4235  -26.7294  -11.3372 C   0  0  0  0  0  0  0  0  0  0  0  0
   12.7218  -27.0337  -11.7466 C   0  0  0  0  0  0  0  0  0  0  0  0
   10.9191  -25.9035  -13.5509 C   0  0  0  0  0  0  0  0  0  0  0  0
    8.6375  -26.0872  -10.1393 C   0  0  0  0  0  0  0  0  0  0  0  0
    9.0184  -28.5082  -10.6368 C   0  0  0  0  0  0  0  0  0  0  0  0
   10.4383  -24.5868   -9.3424 C   0  0  0  0  0  0  0  0  0  0  0  0
    6.9932  -27.4348  -10.9594 C   0  0  0  0  0  0  0  0  0  0  0  0
   11.2860  -25.8002   -9.0266 C   0  0  0  0  0  0  0  0  0  0  0  0
   10.9799  -27.0035   -9.9318 C   0  0  1  0  0  0  0  0  0  0  0  0
    9.4712  -27.2996   -9.8381 C   0  0  1  0  0  0  0  0  0  0  0  0
   14.9202  -27.8641  -11.3816 C   0  0  0  0  0  0  0  0  0  0  0  0
    4.5745  -26.9171   -9.8698 C   0  0  0  0  0  0  0  0  0  0  0  0
    7.4559  -26.1795  -10.6518 N   0  0  0  0  0  0  0  0  0  0  0  0
    7.6845  -28.5308  -10.9736 N   0  0  0  0  0  0  0  0  0  0  0  0
    9.1685  -24.8528   -9.8362 N   0  0  0  0  0  0  0  0  0  0  0  0
    9.7827  -29.4374  -10.8860 O   0  0  0  0  0  0  0  0  0  0  0  0
   10.8439  -23.4462   -9.1199 O   0  0  0  0  0  0  0  0  0  0  0  0
   13.6152  -27.5855  -10.8784 O   0  0  0  0  0  0  0  0  0  0  0  0
    5.2906  -27.5505  -11.3977 S   0  0  0  0  0  0  0  0  0  0  0  0
    9.6982  -25.1374  -14.7739 Br  0  0  0  0  0  0  0  0  0  0  0  0
    5.5015  -28.9904   -6.9104 H   0  0  0  0  0  0  0  0  0  0  0  0
   14.1283  -27.0085  -13.3834 H   0  0  0  0  0  0  0  0  0  0  0  0
   12.5427  -26.0102  -14.9784 H   0  0  0  0  0  0  0  0  0  0  0  0
    9.5112  -25.9285  -11.9145 H   0  0  0  0  0  0  0  0  0  0  0  0
   12.3407  -25.5143   -9.1201 H   0  0  0  0  0  0  0  0  0  0  0  0
   11.1035  -26.0618   -7.9773 H   0  0  0  0  0  0  0  0  0  0  0  0
   11.5518  -27.8700   -9.5796 H   0  0  0  0  0  0  0  0  0  0  0  0
    9.2466  -27.5551   -8.7908 H   0  0  0  0  0  0  0  0  0  0  0  0
   15.5317  -28.3010  -10.5884 H   0  0  0  0  0  0  0  0  0  0  0  0
   15.3779  -26.9393  -11.7418 H   0  0  0  0  0  0  0  0  0  0  0  0
   14.8383  -28.5738  -12.2083 H   0  0  0  0  0  0  0  0  0  0  0  0
    4.9152  -25.8864   -9.7315 H   0  0  0  0  0  0  0  0  0  0  0  0
    3.4865  -26.8930   -9.9867 H   0  0  0  0  0  0  0  0  0  0  0  0
    8.5838  -24.0456  -10.0341 H   0  0  0  0  0  0  0  0  0  0  0  0
  1  2  3  0  0  0  0
  2 17  1  0  0  0  0
  3  4  2  0  0  0  0
  3  7  1  0  0  0  0
  4  8  1  0  0  0  0
  5  6  1  0  0  0  0
  5  8  2  0  0  0  0
  6  7  2  0  0  0  0
  6 14  1  0  0  0  0
  7 23  1  0  0  0  0
  8 25  1  0  0  0  0
  9 15  1  0  0  0  0
  9 18  2  0  0  0  0
  9 20  1  0  0  0  0
 10 15  1  0  0  0  0
 10 19  1  0  0  0  0
 10 21  2  0  0  0  0
 11 13  1  0  0  0  0
 11 20  1  0  0  0  0
 11 22  2  0  0  0  0
 12 18  1  0  0  0  0
 12 19  2  0  0  0  0
 12 24  1  0  0  0  0
 13 14  1  0  0  0  0
 14 15  1  0  0  0  0
 16 23  1  0  0  0  0
 17 24  1  0  0  0  0
  1 26  1  0  0  0  0
  3 27  1  0  0  0  0
  4 28  1  0  0  0  0
  5 29  1  0  0  0  0
 13 30  1  0  0  0  0
 13 31  1  0  0  0  0
 14 32  1  0  0  0  0
 15 33  1  0  0  0  0
 16 34  1  0  0  0  0
 16 35  1  0  0  0  0
 16 36  1  0  0  0  0
 17 37  1  0  0  0  0
 17 38  1  0  0  0  0
 20 39  1  0  0  0  0
M  END
> <Hybrid2>
-2.3985776901245117

> <Hybrid2>
-1.856276

$$$$
C65902400
  -OEChem-02152218483D

 54 56  0     1  0  0  0  0  0999 V2000
    6.8996  -28.7306   -9.1148 C   0  0  0  0  0  0  0  0  0  0  0  0
    6.1308  -26.4804   -8.6878 C   0  0  0  0  0  0  0  0  0  0  0  0
    5.8939  -27.8549   -8.7060 C   0  0  0  0  0  0  0  0  0  0  0  0
    8.1424  -28.2319   -9.5055 C   0  0  0  0  0  0  0  0  0  0  0  0
    7.3736  -25.9817   -9.0785 C   0  0  0  0  0  0  0  0  0  0  0  0
    8.3793  -26.8574   -9.4873 C   0  0  0  0  0  0  0  0  0  0  0  0
   16.1083  -27.5291  -10.8718 C   0  0  0  0  0  0  0  0  0  0  0  0
   12.2297  -25.7853  -12.0577 C   0  0  0  0  0  0  0  0  0  0  0  0
   14.7237  -28.0080  -11.2607 C   0  0  0  0  0  0  0  0  0  0  0  0
    9.7386  -26.1460  -13.8510 C   0  0  0  0  0  0  0  0  0  0  0  0
   10.9466  -27.0618  -13.7358 C   0  0  0  0  0  0  0  0  0  0  0  0
   14.2032  -27.3130  -12.5147 C   0  0  0  0  0  0  0  0  0  0  0  0
    8.9891  -26.3711  -12.5455 C   0  0  0  0  0  0  0  0  0  0  0  0
   15.1936  -25.1974  -10.4925 C   0  0  0  0  0  0  0  0  0  0  0  0
   14.5418  -24.9429  -11.8465 C   0  0  0  0  0  0  0  0  0  0  0  0
   11.3224  -26.9741  -12.2627 C   0  0  2  0  0  0  0  0  0  0  0  0
    4.5654  -28.3876   -8.2864 C   0  0  0  0  0  0  0  0  0  0  0  0
    9.1955  -29.1999   -9.9376 C   0  0  0  0  0  0  0  0  0  0  0  0
    7.5905  -24.5037   -9.0450 C   0  0  0  0  0  0  0  0  0  0  0  0
   16.2493  -26.1963  -10.5588 N   0  0  0  0  0  0  0  0  0  0  0  0
   13.6031  -26.0124  -12.1934 N   0  0  0  0  0  0  0  0  0  0  0  0
   10.0285  -26.7937  -11.5705 N   0  0  1  0  0  0  0  0  0  0  0  0
   17.0577  -28.3146  -10.8335 O   0  0  0  0  0  0  0  0  0  0  0  0
   11.7324  -24.6889  -11.7873 O   0  0  0  0  0  0  0  0  0  0  0  0
    9.8633  -24.7783   -9.9857 O   0  0  0  0  0  0  0  0  0  0  0  0
   10.9658  -26.8965   -9.1824 O   0  0  0  0  0  0  0  0  0  0  0  0
    9.9552  -26.2266   -9.9800 S   0  0  0  0  0  0  0  0  0  0  0  0
    6.7136  -29.8020   -9.1279 H   0  0  0  0  0  0  0  0  0  0  0  0
    5.3458  -25.7984   -8.3694 H   0  0  0  0  0  0  0  0  0  0  0  0
   14.7991  -29.0838  -11.4619 H   0  0  0  0  0  0  0  0  0  0  0  0
   14.0400  -27.8944  -10.4121 H   0  0  0  0  0  0  0  0  0  0  0  0
   10.0644  -25.0980  -13.9270 H   0  0  0  0  0  0  0  0  0  0  0  0
    9.1206  -26.3685  -14.7302 H   0  0  0  0  0  0  0  0  0  0  0  0
   10.6477  -28.0888  -13.9660 H   0  0  0  0  0  0  0  0  0  0  0  0
   11.7492  -26.7754  -14.4167 H   0  0  0  0  0  0  0  0  0  0  0  0
   15.0053  -27.1450  -13.2431 H   0  0  0  0  0  0  0  0  0  0  0  0
   13.4679  -27.9577  -13.0013 H   0  0  0  0  0  0  0  0  0  0  0  0
    8.4863  -25.4555  -12.2063 H   0  0  0  0  0  0  0  0  0  0  0  0
    8.2390  -27.1676  -12.6660 H   0  0  0  0  0  0  0  0  0  0  0  0
   15.6644  -24.2750  -10.1357 H   0  0  0  0  0  0  0  0  0  0  0  0
   14.4589  -25.5087   -9.7418 H   0  0  0  0  0  0  0  0  0  0  0  0
   14.0078  -23.9874  -11.8046 H   0  0  0  0  0  0  0  0  0  0  0  0
   15.2878  -24.8540  -12.6449 H   0  0  0  0  0  0  0  0  0  0  0  0
   11.8643  -27.8814  -11.9596 H   0  0  0  0  0  0  0  0  0  0  0  0
    4.5594  -28.5931   -7.2090 H   0  0  0  0  0  0  0  0  0  0  0  0
    3.7617  -27.6739   -8.5090 H   0  0  0  0  0  0  0  0  0  0  0  0
    4.3223  -29.3161   -8.8193 H   0  0  0  0  0  0  0  0  0  0  0  0
    9.1294  -29.3749  -11.0174 H   0  0  0  0  0  0  0  0  0  0  0  0
   10.1987  -28.8231   -9.7046 H   0  0  0  0  0  0  0  0  0  0  0  0
    9.0863  -30.1605   -9.4197 H   0  0  0  0  0  0  0  0  0  0  0  0
    7.9790  -24.1996   -8.0664 H   0  0  0  0  0  0  0  0  0  0  0  0
    8.3034  -24.1908   -9.8174 H   0  0  0  0  0  0  0  0  0  0  0  0
    6.6556  -23.9622   -9.2344 H   0  0  0  0  0  0  0  0  0  0  0  0
   17.1817  -25.8894  -10.2983 H   0  0  0  0  0  0  0  0  0  0  0  0
  1  3  1  0  0  0  0
  1  4  2  0  0  0  0
  2  3  2  0  0  0  0
  2  5  1  0  0  0  0
  3 17  1  0  0  0  0
  4  6  1  0  0  0  0
  4 18  1  0  0  0  0
  5  6  2  0  0  0  0
  5 19  1  0  0  0  0
  6 27  1  0  0  0  0
  7  9  1  0  0  0  0
  7 20  1  0  0  0  0
  7 23  2  0  0  0  0
  8 16  1  0  0  0  0
  8 21  1  0  0  0  0
  8 24  2  0  0  0  0
  9 12  1  0  0  0  0
 10 11  1  0  0  0  0
 10 13  1  0  0  0  0
 11 16  1  0  0  0  0
 12 21  1  0  0  0  0
 13 22  1  0  0  0  0
 14 15  1  0  0  0  0
 14 20  1  0  0  0  0
 15 21  1  0  0  0  0
 16 22  1  0  0  0  0
 22 27  1  0  0  0  0
 25 27  2  0  0  0  0
 26 27  2  0  0  0  0
  1 28  1  0  0  0  0
  2 29  1  0  0  0  0
  9 30  1  0  0  0  0
  9 31  1  0  0  0  0
 10 32  1  0  0  0  0
 10 33  1  0  0  0  0
 11 34  1  0  0  0  0
 11 35  1  0  0  0  0
 12 36  1  0  0  0  0
 12 37  1  0  0  0  0
 13 38  1  0  0  0  0
 13 39  1  0  0  0  0
 14 40  1  0  0  0  0
 14 41  1  0  0  0  0
 15 42  1  0  0  0  0
 15 43  1  0  0  0  0
 16 44  1  0  0  0  0
 17 45  1  0  0  0  0
 17 46  1  0  0  0  0
 17 47  1  0  0  0  0
 18 48  1  0  0  0  0
 18 49  1  0  0  0  0
 18 50  1  0  0  0  0
 19 51  1  0  0  0  0
 19 52  1  0  0  0  0
 19 53  1  0  0  0  0
 20 54  1  0  0  0  0
M  END
> <Hybrid2>
-3.800534725189209

> <Hybrid2>
-3.800535

$$$$
C65902400
  -OEChem-02152218483D

 54 56  0     1  0  0  0  0  0999 V2000
    6.9505  -29.4724   -9.3005 C   0  0  0  0  0  0  0  0  0  0  0  0
    6.0320  -27.3002   -8.7764 C   0  0  0  0  0  0  0  0  0  0  0  0
    5.8804  -28.6829   -8.8798 C   0  0  0  0  0  0  0  0  0  0  0  0
    8.1725  -28.8792   -9.6177 C   0  0  0  0  0  0  0  0  0  0  0  0
    7.2540  -26.7069   -9.0937 C   0  0  0  0  0  0  0  0  0  0  0  0
    8.3242  -27.4964   -9.5143 C   0  0  0  0  0  0  0  0  0  0  0  0
   16.1208  -27.6277  -10.6553 C   0  0  0  0  0  0  0  0  0  0  0  0
   12.1833  -26.0511  -11.8807 C   0  0  0  0  0  0  0  0  0  0  0  0
   14.7814  -28.1645  -11.1198 C   0  0  0  0  0  0  0  0  0  0  0  0
    9.7786  -26.4542  -13.7797 C   0  0  0  0  0  0  0  0  0  0  0  0
   11.0360  -27.3021  -13.6725 C   0  0  0  0  0  0  0  0  0  0  0  0
   14.2605  -27.4301  -12.3510 C   0  0  0  0  0  0  0  0  0  0  0  0
    9.0022  -26.7985  -12.5167 C   0  0  0  0  0  0  0  0  0  0  0  0
   15.0532  -25.3802  -10.1796 C   0  0  0  0  0  0  0  0  0  0  0  0
   14.4314  -25.0868  -11.5398 C   0  0  0  0  0  0  0  0  0  0  0  0
   11.3576  -27.2777  -12.1843 C   0  0  2  0  0  0  0  0  0  0  0  0
    4.5740  -29.3168   -8.5386 C   0  0  0  0  0  0  0  0  0  0  0  0
    9.2964  -29.7564  -10.0650 C   0  0  0  0  0  0  0  0  0  0  0  0
    7.3789  -25.2231   -8.9699 C   0  0  0  0  0  0  0  0  0  0  0  0
   16.1697  -26.3093  -10.2635 N   0  0  0  0  0  0  0  0  0  0  0  0
   13.5717  -26.1882  -11.9794 N   0  0  0  0  0  0  0  0  0  0  0  0
   10.0333  -27.2146  -11.5300 N   0  0  1  0  0  0  0  0  0  0  0  0
   17.1147  -28.3565  -10.6267 O   0  0  0  0  0  0  0  0  0  0  0  0
   11.6113  -25.0036  -11.5676 O   0  0  0  0  0  0  0  0  0  0  0  0
    9.6935  -25.3077   -9.8421 O   0  0  0  0  0  0  0  0  0  0  0  0
   10.8969  -27.3998   -9.1192 O   0  0  0  0  0  0  0  0  0  0  0  0
    9.8737  -26.7459   -9.9140 S   0  0  0  0  0  0  0  0  0  0  0  0
    6.8310  -30.5504   -9.3800 H   0  0  0  0  0  0  0  0  0  0  0  0
    5.1968  -26.6855   -8.4488 H   0  0  0  0  0  0  0  0  0  0  0  0
   14.9290  -29.2205  -11.3780 H   0  0  0  0  0  0  0  0  0  0  0  0
   14.0648  -28.1409  -10.2914 H   0  0  0  0  0  0  0  0  0  0  0  0
   10.0420  -25.3861  -13.7853 H   0  0  0  0  0  0  0  0  0  0  0  0
    9.2043  -26.6617  -14.6917 H   0  0  0  0  0  0  0  0  0  0  0  0
   10.8081  -28.3299  -13.9703 H   0  0  0  0  0  0  0  0  0  0  0  0
   11.8413  -26.9296  -14.3071 H   0  0  0  0  0  0  0  0  0  0  0  0
   15.0741  -27.1731  -13.0396 H   0  0  0  0  0  0  0  0  0  0  0  0
   13.5822  -28.0880  -12.8989 H   0  0  0  0  0  0  0  0  0  0  0  0
    8.4335  -25.9355  -12.1452 H   0  0  0  0  0  0  0  0  0  0  0  0
    8.3066  -27.6298  -12.7084 H   0  0  0  0  0  0  0  0  0  0  0  0
   15.4548  -24.4538   -9.7551 H   0  0  0  0  0  0  0  0  0  0  0  0
   14.3149  -25.7774   -9.4743 H   0  0  0  0  0  0  0  0  0  0  0  0
   13.8389  -24.1687  -11.4638 H   0  0  0  0  0  0  0  0  0  0  0  0
   15.1962  -24.9078  -12.3046 H   0  0  0  0  0  0  0  0  0  0  0  0
   11.9439  -28.1673  -11.9129 H   0  0  0  0  0  0  0  0  0  0  0  0
    4.5456  -29.5844   -7.4753 H   0  0  0  0  0  0  0  0  0  0  0  0
    3.7358  -28.6402   -8.7498 H   0  0  0  0  0  0  0  0  0  0  0  0
    4.4056  -30.2256   -9.1310 H   0  0  0  0  0  0  0  0  0  0  0  0
    9.2763  -29.8722  -11.1546 H   0  0  0  0  0  0  0  0  0  0  0  0
   10.2666  -29.3350   -9.7754 H   0  0  0  0  0  0  0  0  0  0  0  0
    9.2294  -30.7502   -9.6058 H   0  0  0  0  0  0  0  0  0  0  0  0
    7.7160  -24.9537   -7.9626 H   0  0  0  0  0  0  0  0  0  0  0  0
    8.0960  -24.8243   -9.6976 H   0  0  0  0  0  0  0  0  0  0  0  0
    6.4192  -24.7279   -9.1623 H   0  0  0  0  0  0  0  0  0  0  0  0
   17.0725  -25.9633   -9.9529 H   0  0  0  0  0  0  0  0  0  0  0  0
  1  3  1  0  0  0  0
  1  4  2  0  0  0  0
  2  3  2  0  0  0  0
  2  5  1  0  0  0  0
  3 17  1  0  0  0  0
  4  6  1  0  0  0  0
  4 18  1  0  0  0  0
  5  6  2  0  0  0  0
  5 19  1  0  0  0  0
  6 27  1  0  0  0  0
  7  9  1  0  0  0  0
  7 20  1  0  0  0  0
  7 23  2  0  0  0  0
  8 16  1  0  0  0  0
  8 21  1  0  0  0  0
  8 24  2  0  0  0  0
  9 12  1  0  0  0  0
 10 11  1  0  0  0  0
 10 13  1  0  0  0  0
 11 16  1  0  0  0  0
 12 21  1  0  0  0  0
 13 22  1  0  0  0  0
 14 15  1  0  0  0  0
 14 20  1  0  0  0  0
 15 21  1  0  0  0  0
 16 22  1  0  0  0  0
 22 27  1  0  0  0  0
 25 27  2  0  0  0  0
 26 27  2  0  0  0  0
  1 28  1  0  0  0  0
  2 29  1  0  0  0  0
  9 30  1  0  0  0  0
  9 31  1  0  0  0  0
 10 32  1  0  0  0  0
 10 33  1  0  0  0  0
 11 34  1  0  0  0  0
 11 35  1  0  0  0  0
 12 36  1  0  0  0  0
 12 37  1  0  0  0  0
 13 38  1  0  0  0  0
 13 39  1  0  0  0  0
 14 40  1  0  0  0  0
 14 41  1  0  0  0  0
 15 42  1  0  0  0  0
 15 43  1  0  0  0  0
 16 44  1  0  0  0  0
 17 45  1  0  0  0  0
 17 46  1  0  0  0  0
 17 47  1  0  0  0  0
 18 48  1  0  0  0  0
 18 49  1  0  0  0  0
 18 50  1  0  0  0  0
 19 51  1  0  0  0  0
 19 52  1  0  0  0  0
 19 53  1  0  0  0  0
 20 54  1  0  0  0  0
M  END
> <Hybrid2>
-3.800534725189209

> <Hybrid2>
-3.784938

$$$$
C66438369
  -OEChem-02152218493D

 52 55  0     1  0  0  0  0  0999 V2000
    9.2113  -23.3625  -11.1458 C   0  0  0  0  0  0  0  0  0  0  0  0
    8.1476  -22.9072  -10.3668 C   0  0  0  0  0  0  0  0  0  0  0  0
    8.7701  -25.6260  -10.4254 C   0  0  0  0  0  0  0  0  0  0  0  0
    9.5226  -24.7219  -11.1751 C   0  0  0  0  0  0  0  0  0  0  0  0
    7.3952  -23.8113   -9.6171 C   0  0  0  0  0  0  0  0  0  0  0  0
    7.7064  -25.1707   -9.6464 C   0  0  0  0  0  0  0  0  0  0  0  0
    6.1772  -30.4987   -8.1536 C   0  0  0  0  0  0  0  0  0  0  0  0
   10.6416  -25.2000  -11.9955 C   0  0  0  0  0  0  0  0  0  0  0  0
    7.1414  -27.4779   -8.8204 C   0  0  0  0  0  0  0  0  0  0  0  0
    6.6991  -29.3824   -7.2786 C   0  0  0  0  0  0  0  0  0  0  0  0
    3.5791  -31.9304   -9.4241 C   0  0  0  0  0  0  0  0  0  0  0  0
    2.8520  -30.6760   -9.8069 C   0  0  0  0  0  0  0  0  0  0  0  0
   12.2293  -24.8739  -10.0288 C   0  0  0  0  0  0  0  0  0  0  0  0
   13.0328  -25.7989  -12.1771 C   0  0  0  0  0  0  0  0  0  0  0  0
    4.9131  -28.5708   -8.6900 C   0  0  0  0  0  0  0  0  0  0  0  0
   12.6218  -26.0852   -9.1914 C   0  0  0  0  0  0  0  0  0  0  0  0
   13.5220  -27.1182  -11.5914 C   0  0  0  0  0  0  0  0  0  0  0  0
    6.1324  -28.1131   -7.9099 C   0  0  2  0  0  0  0  0  0  0  0  0
    4.3537  -30.7232   -9.8773 C   0  0  0  0  0  0  0  0  0  0  0  0
    6.2620  -23.2952   -8.7909 C   0  0  0  0  0  0  0  0  0  0  0  0
    5.1729  -29.9671   -8.9544 N   0  0  0  0  0  0  0  0  0  0  0  0
   11.9095  -25.2600  -11.4097 N   0  0  0  0  0  0  0  0  0  0  0  0
    6.9543  -26.1034   -8.8933 N   0  0  0  0  0  0  0  0  0  0  0  0
    6.5729  -31.6545   -8.1077 O   0  0  0  0  0  0  0  0  0  0  0  0
   10.3673  -25.5217  -13.1507 O   0  0  0  0  0  0  0  0  0  0  0  0
    7.9917  -28.1569   -9.3868 O   0  0  0  0  0  0  0  0  0  0  0  0
   14.0935  -26.9143   -9.8738 S   0  0  0  0  0  0  0  0  0  0  0  0
    9.7908  -22.6492  -11.7262 H   0  0  0  0  0  0  0  0  0  0  0  0
    7.9135  -21.8461  -10.3507 H   0  0  0  0  0  0  0  0  0  0  0  0
    9.0143  -26.6861  -10.4483 H   0  0  0  0  0  0  0  0  0  0  0  0
    6.3015  -29.5300   -6.2690 H   0  0  0  0  0  0  0  0  0  0  0  0
    7.7924  -29.4032   -7.2534 H   0  0  0  0  0  0  0  0  0  0  0  0
    3.6048  -32.1966   -8.3745 H   0  0  0  0  0  0  0  0  0  0  0  0
    3.5201  -32.7745  -10.1002 H   0  0  0  0  0  0  0  0  0  0  0  0
    2.3032  -30.6752  -10.7407 H   0  0  0  0  0  0  0  0  0  0  0  0
    2.3899  -30.1005   -9.0141 H   0  0  0  0  0  0  0  0  0  0  0  0
   11.3779  -24.3762   -9.5568 H   0  0  0  0  0  0  0  0  0  0  0  0
   13.0414  -24.1371  -10.0654 H   0  0  0  0  0  0  0  0  0  0  0  0
   13.8308  -25.0466  -12.1899 H   0  0  0  0  0  0  0  0  0  0  0  0
   12.7305  -25.9615  -13.2174 H   0  0  0  0  0  0  0  0  0  0  0  0
    4.0052  -28.5099   -8.0804 H   0  0  0  0  0  0  0  0  0  0  0  0
    4.7650  -28.0298   -9.6299 H   0  0  0  0  0  0  0  0  0  0  0  0
   12.8556  -25.7693   -8.1699 H   0  0  0  0  0  0  0  0  0  0  0  0
   11.7991  -26.8058   -9.1334 H   0  0  0  0  0  0  0  0  0  0  0  0
   12.7311  -27.8757  -11.6172 H   0  0  0  0  0  0  0  0  0  0  0  0
   14.3601  -27.4984  -12.1841 H   0  0  0  0  0  0  0  0  0  0  0  0
    5.8726  -27.3709   -7.1515 H   0  0  0  0  0  0  0  0  0  0  0  0
    4.7928  -30.7709  -10.8681 H   0  0  0  0  0  0  0  0  0  0  0  0
    5.3360  -23.2926   -9.3769 H   0  0  0  0  0  0  0  0  0  0  0  0
    6.1098  -23.9135   -7.8980 H   0  0  0  0  0  0  0  0  0  0  0  0
    6.4593  -22.2739   -8.4429 H   0  0  0  0  0  0  0  0  0  0  0  0
    6.1922  -25.7085   -8.3463 H   0  0  0  0  0  0  0  0  0  0  0  0
  1  2  2  0  0  0  0
  1  4  1  0  0  0  0
  2  5  1  0  0  0  0
  3  4  2  0  0  0  0
  3  6  1  0  0  0  0
  4  8  1  0  0  0  0
  5  6  2  0  0  0  0
  5 20  1  0  0  0  0
  6 23  1  0  0  0  0
  7 10  1  0  0  0  0
  7 21  1  0  0  0  0
  7 24  2  0  0  0  0
  8 22  1  0  0  0  0
  8 25  2  0  0  0  0
  9 18  1  0  0  0  0
  9 23  1  0  0  0  0
  9 26  2  0  0  0  0
 10 18  1  0  0  0  0
 11 12  1  0  0  0  0
 11 19  1  0  0  0  0
 12 19  1  0  0  0  0
 13 16  1  0  0  0  0
 13 22  1  0  0  0  0
 14 17  1  0  0  0  0
 14 22  1  0  0  0  0
 15 18  1  0  0  0  0
 15 21  1  0  0  0  0
 16 27  1  0  0  0  0
 17 27  1  0  0  0  0
 19 21  1  0  0  0  0
  1 28  1  0  0  0  0
  2 29  1  0  0  0  0
  3 30  1  0  0  0  0
 10 31  1  0  0  0  0
 10 32  1  0  0  0  0
 11 33  1  0  0  0  0
 11 34  1  0  0  0  0
 12 35  1  0  0  0  0
 12 36  1  0  0  0  0
 13 37  1  0  0  0  0
 13 38  1  0  0  0  0
 14 39  1  0  0  0  0
 14 40  1  0  0  0  0
 15 41  1  0  0  0  0
 15 42  1  0  0  0  0
 16 43  1  0  0  0  0
 16 44  1  0  0  0  0
 17 45  1  0  0  0  0
 17 46  1  0  0  0  0
 18 47  1  0  0  0  0
 19 48  1  0  0  0  0
 20 49  1  0  0  0  0
 20 50  1  0  0  0  0
 20 51  1  0  0  0  0
 23 52  1  0  0  0  0
M  END
> <Hybrid2>
-4.6644439697265625

> <Hybrid2>
-4.664444

$$$$
C66438369
  -OEChem-02152218493D

 52 55  0     1  0  0  0  0  0999 V2000
    8.5971  -23.7144  -10.2894 C   0  0  0  0  0  0  0  0  0  0  0  0
    7.5331  -23.4351   -9.4318 C   0  0  0  0  0  0  0  0  0  0  0  0
    8.1093  -26.0750  -10.1260 C   0  0  0  0  0  0  0  0  0  0  0  0
    8.8852  -25.0344  -10.6365 C   0  0  0  0  0  0  0  0  0  0  0  0
    6.7572  -24.4758   -8.9213 C   0  0  0  0  0  0  0  0  0  0  0  0
    7.0452  -25.7957   -9.2684 C   0  0  0  0  0  0  0  0  0  0  0  0
    4.1164  -31.0212   -8.6573 C   0  0  0  0  0  0  0  0  0  0  0  0
   10.0046  -25.3271  -11.5394 C   0  0  0  0  0  0  0  0  0  0  0  0
    6.4317  -28.2212   -9.0134 C   0  0  0  0  0  0  0  0  0  0  0  0
    5.5386  -30.5212   -8.5949 C   0  0  0  0  0  0  0  0  0  0  0  0
    0.9849  -30.7392   -7.9302 C   0  0  0  0  0  0  0  0  0  0  0  0
    0.9399  -29.2405   -7.9117 C   0  0  0  0  0  0  0  0  0  0  0  0
   11.5764  -25.5044   -9.5411 C   0  0  0  0  0  0  0  0  0  0  0  0
   12.3869  -25.9123  -11.8418 C   0  0  0  0  0  0  0  0  0  0  0  0
    4.0066  -28.6615   -8.7526 C   0  0  0  0  0  0  0  0  0  0  0  0
   11.9390  -26.8862   -9.0105 C   0  0  0  0  0  0  0  0  0  0  0  0
   12.8470  -27.3417  -11.5806 C   0  0  0  0  0  0  0  0  0  0  0  0
    5.4060  -29.0306   -8.2876 C   0  0  2  0  0  0  0  0  0  0  0  0
    1.8468  -29.9515   -8.8784 C   0  0  0  0  0  0  0  0  0  0  0  0
    5.6243  -24.1472   -8.0039 C   0  0  0  0  0  0  0  0  0  0  0  0
    3.2857  -29.9103   -8.7271 N   0  0  0  0  0  0  0  0  0  0  0  0
   11.2649  -25.5479  -10.9761 N   0  0  0  0  0  0  0  0  0  0  0  0
    6.2692  -26.8649   -8.7613 N   0  0  0  0  0  0  0  0  0  0  0  0
    3.7999  -32.2020   -8.6727 O   0  0  0  0  0  0  0  0  0  0  0  0
    9.7372  -25.3621  -12.7395 O   0  0  0  0  0  0  0  0  0  0  0  0
    7.2762  -28.7639   -9.7186 O   0  0  0  0  0  0  0  0  0  0  0  0
   13.4034  -27.5594   -9.8597 S   0  0  0  0  0  0  0  0  0  0  0  0
    9.1951  -22.8957  -10.6815 H   0  0  0  0  0  0  0  0  0  0  0  0
    7.3172  -22.4034   -9.1674 H   0  0  0  0  0  0  0  0  0  0  0  0
    8.3354  -27.1044  -10.3966 H   0  0  0  0  0  0  0  0  0  0  0  0
    6.0474  -31.0457   -7.7781 H   0  0  0  0  0  0  0  0  0  0  0  0
    6.0525  -30.7238   -9.5400 H   0  0  0  0  0  0  0  0  0  0  0  0
    1.4594  -31.2386   -7.0943 H   0  0  0  0  0  0  0  0  0  0  0  0
    0.1324  -31.2650   -8.3423 H   0  0  0  0  0  0  0  0  0  0  0  0
    0.0570  -28.7568   -8.3114 H   0  0  0  0  0  0  0  0  0  0  0  0
    1.3841  -28.7342   -7.0635 H   0  0  0  0  0  0  0  0  0  0  0  0
   10.7287  -25.1156   -8.9705 H   0  0  0  0  0  0  0  0  0  0  0  0
   12.4015  -24.7955   -9.3977 H   0  0  0  0  0  0  0  0  0  0  0  0
   13.1978  -25.1938  -11.6717 H   0  0  0  0  0  0  0  0  0  0  0  0
   12.0931  -25.8194  -12.8930 H   0  0  0  0  0  0  0  0  0  0  0  0
    3.5209  -27.9795   -8.0453 H   0  0  0  0  0  0  0  0  0  0  0  0
    3.9800  -28.2290   -9.7587 H   0  0  0  0  0  0  0  0  0  0  0  0
   12.1671  -26.8246   -7.9418 H   0  0  0  0  0  0  0  0  0  0  0  0
   11.1034  -27.5843   -9.1293 H   0  0  0  0  0  0  0  0  0  0  0  0
   12.0435  -28.0564  -11.7894 H   0  0  0  0  0  0  0  0  0  0  0  0
   13.6847  -27.5876  -12.2409 H   0  0  0  0  0  0  0  0  0  0  0  0
    5.5341  -28.8305   -7.2177 H   0  0  0  0  0  0  0  0  0  0  0  0
    1.5457  -29.9476   -9.9204 H   0  0  0  0  0  0  0  0  0  0  0  0
    4.7048  -23.9887   -8.5788 H   0  0  0  0  0  0  0  0  0  0  0  0
    5.4518  -24.9554   -7.2831 H   0  0  0  0  0  0  0  0  0  0  0  0
    5.8354  -23.2407   -7.4237 H   0  0  0  0  0  0  0  0  0  0  0  0
    5.5081  -26.5954   -8.1414 H   0  0  0  0  0  0  0  0  0  0  0  0
  1  2  2  0  0  0  0
  1  4  1  0  0  0  0
  2  5  1  0  0  0  0
  3  4  2  0  0  0  0
  3  6  1  0  0  0  0
  4  8  1  0  0  0  0
  5  6  2  0  0  0  0
  5 20  1  0  0  0  0
  6 23  1  0  0  0  0
  7 10  1  0  0  0  0
  7 21  1  0  0  0  0
  7 24  2  0  0  0  0
  8 22  1  0  0  0  0
  8 25  2  0  0  0  0
  9 18  1  0  0  0  0
  9 23  1  0  0  0  0
  9 26  2  0  0  0  0
 10 18  1  0  0  0  0
 11 12  1  0  0  0  0
 11 19  1  0  0  0  0
 12 19  1  0  0  0  0
 13 16  1  0  0  0  0
 13 22  1  0  0  0  0
 14 17  1  0  0  0  0
 14 22  1  0  0  0  0
 15 18  1  0  0  0  0
 15 21  1  0  0  0  0
 16 27  1  0  0  0  0
 17 27  1  0  0  0  0
 19 21  1  0  0  0  0
  1 28  1  0  0  0  0
  2 29  1  0  0  0  0
  3 30  1  0  0  0  0
 10 31  1  0  0  0  0
 10 32  1  0  0  0  0
 11 33  1  0  0  0  0
 11 34  1  0  0  0  0
 12 35  1  0  0  0  0
 12 36  1  0  0  0  0
 13 37  1  0  0  0  0
 13 38  1  0  0  0  0
 14 39  1  0  0  0  0
 14 40  1  0  0  0  0
 15 41  1  0  0  0  0
 15 42  1  0  0  0  0
 16 43  1  0  0  0  0
 16 44  1  0  0  0  0
 17 45  1  0  0  0  0
 17 46  1  0  0  0  0
 18 47  1  0  0  0  0
 19 48  1  0  0  0  0
 20 49  1  0  0  0  0
 20 50  1  0  0  0  0
 20 51  1  0  0  0  0
 23 52  1  0  0  0  0
M  END
> <Hybrid2>
-4.6644439697265625

> <Hybrid2>
-4.099976

$$$$
C66445582
  -OEChem-02152218493D

 41 43  0     1  0  0  0  0  0999 V2000
    4.2794  -25.8256   -8.9953 C   0  0  0  0  0  0  0  0  0  0  0  0
    5.5700  -25.3665   -9.2581 C   0  0  0  0  0  0  0  0  0  0  0  0
    3.9735  -27.1770   -9.1565 C   0  0  0  0  0  0  0  0  0  0  0  0
    6.2489  -27.6101   -9.8435 C   0  0  0  0  0  0  0  0  0  0  0  0
    6.5548  -26.2587   -9.6823 C   0  0  0  0  0  0  0  0  0  0  0  0
    4.9582  -28.0692   -9.5806 C   0  0  0  0  0  0  0  0  0  0  0  0
   12.2881  -27.0127  -10.1412 C   0  0  0  0  0  0  0  0  0  0  0  0
    8.9558  -26.5385  -10.3760 C   0  0  0  0  0  0  0  0  0  0  0  0
   13.3600  -27.5143  -11.0834 C   0  0  0  0  0  0  0  0  0  0  0  0
   13.0141  -26.8111  -12.4054 C   0  0  0  0  0  0  0  0  0  0  0  0
    9.9950  -24.6077  -11.6209 C   0  0  0  0  0  0  0  0  0  0  0  0
   10.1667  -25.6741  -10.5439 C   0  0  2  0  0  0  0  0  0  0  0  0
   11.4926  -26.7130  -12.3550 C   0  0  1  0  0  0  0  0  0  0  0  0
   10.8223  -27.9738  -12.9084 C   0  0  0  0  0  0  0  0  0  0  0  0
    4.9136  -30.4864   -8.2005 C   0  0  0  0  0  0  0  0  0  0  0  0
   11.2532  -26.5443  -10.9410 N   0  0  0  0  0  0  0  0  0  0  0  0
    7.8642  -25.7932   -9.9487 N   0  0  0  0  0  0  0  0  0  0  0  0
   12.3629  -27.0178   -8.9227 O   0  0  0  0  0  0  0  0  0  0  0  0
    9.0054  -27.7416  -10.6105 O   0  0  0  0  0  0  0  0  0  0  0  0
    5.5160  -30.3480  -10.7261 O   0  0  0  0  0  0  0  0  0  0  0  0
    3.1430  -29.8640  -10.0257 O   0  0  0  0  0  0  0  0  0  0  0  0
    4.6673  -31.8208   -8.2104 F   0  0  0  0  0  0  0  0  0  0  0  0
    6.2196  -30.3318   -7.8686 F   0  0  0  0  0  0  0  0  0  0  0  0
   10.7776  -25.2422  -13.1477 S   0  0  0  0  0  0  0  0  0  0  0  0
    4.5746  -29.7603   -9.7832 S   0  0  0  0  0  0  0  0  0  0  0  0
    3.5126  -25.1313   -8.6645 H   0  0  0  0  0  0  0  0  0  0  0  0
    5.7969  -24.3113   -9.1283 H   0  0  0  0  0  0  0  0  0  0  0  0
    2.9648  -27.5241   -8.9494 H   0  0  0  0  0  0  0  0  0  0  0  0
    7.0163  -28.3066  -10.1741 H   0  0  0  0  0  0  0  0  0  0  0  0
   14.3545  -27.2325  -10.7288 H   0  0  0  0  0  0  0  0  0  0  0  0
   13.2856  -28.6026  -11.1665 H   0  0  0  0  0  0  0  0  0  0  0  0
   13.4840  -25.8191  -12.4143 H   0  0  0  0  0  0  0  0  0  0  0  0
   13.3905  -27.3714  -13.2673 H   0  0  0  0  0  0  0  0  0  0  0  0
    8.9478  -24.3617  -11.8191 H   0  0  0  0  0  0  0  0  0  0  0  0
   10.5244  -23.6920  -11.3397 H   0  0  0  0  0  0  0  0  0  0  0  0
   10.3823  -25.2293   -9.5664 H   0  0  0  0  0  0  0  0  0  0  0  0
    9.7416  -27.8657  -12.8557 H   0  0  0  0  0  0  0  0  0  0  0  0
   11.1267  -28.8367  -12.3210 H   0  0  0  0  0  0  0  0  0  0  0  0
   11.1193  -28.1204  -13.9442 H   0  0  0  0  0  0  0  0  0  0  0  0
    4.2873  -30.0171   -7.4384 H   0  0  0  0  0  0  0  0  0  0  0  0
    8.0093  -24.7955   -9.8078 H   0  0  0  0  0  0  0  0  0  0  0  0
  1  2  2  0  0  0  0
  1  3  1  0  0  0  0
  2  5  1  0  0  0  0
  3  6  2  0  0  0  0
  4  5  2  0  0  0  0
  4  6  1  0  0  0  0
  5 17  1  0  0  0  0
  6 25  1  0  0  0  0
  7  9  1  0  0  0  0
  7 16  1  0  0  0  0
  7 18  2  0  0  0  0
  8 12  1  0  0  0  0
  8 17  1  0  0  0  0
  8 19  2  0  0  0  0
  9 10  1  0  0  0  0
 10 13  1  0  0  0  0
 11 12  1  0  0  0  0
 11 24  1  0  0  0  0
 12 16  1  0  0  0  0
 13 14  1  0  0  0  0
 13 16  1  0  0  0  0
 13 24  1  0  0  0  0
 15 22  1  0  0  0  0
 15 23  1  0  0  0  0
 15 25  1  0  0  0  0
 20 25  2  0  0  0  0
 21 25  2  0  0  0  0
  1 26  1  0  0  0  0
  2 27  1  0  0  0  0
  3 28  1  0  0  0  0
  4 29  1  0  0  0  0
  9 30  1  0  0  0  0
  9 31  1  0  0  0  0
 10 32  1  0  0  0  0
 10 33  1  0  0  0  0
 11 34  1  0  0  0  0
 11 35  1  0  0  0  0
 12 36  1  0  0  0  0
 14 37  1  0  0  0  0
 14 38  1  0  0  0  0
 14 39  1  0  0  0  0
 15 40  1  0  0  0  0
 17 41  1  0  0  0  0
M  END
> <Hybrid2>
-2.3528294563293457

> <Hybrid2>
-2.352829

$$$$
C66445582
  -OEChem-02152218493D

 41 43  0     1  0  0  0  0  0999 V2000
    5.5438  -25.5214   -9.3170 C   0  0  0  0  0  0  0  0  0  0  0  0
    6.7987  -25.2634   -9.8686 C   0  0  0  0  0  0  0  0  0  0  0  0
    5.2657  -26.7751   -8.7722 C   0  0  0  0  0  0  0  0  0  0  0  0
    7.4975  -27.5128   -9.3307 C   0  0  0  0  0  0  0  0  0  0  0  0
    7.7755  -26.2591   -9.8754 C   0  0  0  0  0  0  0  0  0  0  0  0
    6.2426  -27.7707   -8.7790 C   0  0  0  0  0  0  0  0  0  0  0  0
   13.4805  -27.2002  -10.3426 C   0  0  0  0  0  0  0  0  0  0  0  0
   10.1277  -26.8677  -10.5244 C   0  0  0  0  0  0  0  0  0  0  0  0
   14.4961  -28.1102  -10.9973 C   0  0  0  0  0  0  0  0  0  0  0  0
   14.0366  -28.1420  -12.4635 C   0  0  0  0  0  0  0  0  0  0  0  0
   11.0198  -25.8060  -12.6302 C   0  0  0  0  0  0  0  0  0  0  0  0
   11.2985  -26.2091  -11.1857 C   0  0  2  0  0  0  0  0  0  0  0  0
   12.5204  -28.0161  -12.3516 C   0  0  1  0  0  0  0  0  0  0  0  0
   11.8484  -29.3793  -12.1640 C   0  0  0  0  0  0  0  0  0  0  0  0
    5.2439  -30.2798   -9.4548 C   0  0  0  0  0  0  0  0  0  0  0  0
   12.3781  -27.1733  -11.1876 N   0  0  0  0  0  0  0  0  0  0  0  0
    9.0488  -25.9974  -10.4347 N   0  0  0  0  0  0  0  0  0  0  0  0
   13.6424  -26.6080   -9.2873 O   0  0  0  0  0  0  0  0  0  0  0  0
   10.1947  -28.0317  -10.1429 O   0  0  0  0  0  0  0  0  0  0  0  0
    4.8173  -29.2039   -7.1264 O   0  0  0  0  0  0  0  0  0  0  0  0
    7.1584  -29.9421   -7.7014 O   0  0  0  0  0  0  0  0  0  0  0  0
    6.1509  -30.3828  -10.4589 F   0  0  0  0  0  0  0  0  0  0  0  0
    4.9449  -31.5445   -9.0663 F   0  0  0  0  0  0  0  0  0  0  0  0
   11.7089  -27.1154  -13.7056 S   0  0  0  0  0  0  0  0  0  0  0  0
    5.8937  -29.3399   -8.0979 S   0  0  0  0  0  0  0  0  0  0  0  0
    4.7831  -24.7462   -9.3110 H   0  0  0  0  0  0  0  0  0  0  0  0
    7.0041  -24.2825  -10.2897 H   0  0  0  0  0  0  0  0  0  0  0  0
    4.2847  -26.9657   -8.3454 H   0  0  0  0  0  0  0  0  0  0  0  0
    8.2588  -28.2897   -9.3355 H   0  0  0  0  0  0  0  0  0  0  0  0
   15.5049  -27.7010  -10.9031 H   0  0  0  0  0  0  0  0  0  0  0  0
   14.4469  -29.0987  -10.5311 H   0  0  0  0  0  0  0  0  0  0  0  0
   14.4761  -27.2865  -12.9927 H   0  0  0  0  0  0  0  0  0  0  0  0
   14.3661  -29.0567  -12.9666 H   0  0  0  0  0  0  0  0  0  0  0  0
    9.9545  -25.6780  -12.8429 H   0  0  0  0  0  0  0  0  0  0  0  0
   11.5417  -24.8755  -12.8746 H   0  0  0  0  0  0  0  0  0  0  0  0
   11.5707  -25.3445  -10.5709 H   0  0  0  0  0  0  0  0  0  0  0  0
   10.7716  -29.2482  -12.0886 H   0  0  0  0  0  0  0  0  0  0  0  0
   12.2185  -29.8465  -11.2545 H   0  0  0  0  0  0  0  0  0  0  0  0
   12.0746  -30.0179  -13.0146 H   0  0  0  0  0  0  0  0  0  0  0  0
    4.3436  -29.7960   -9.8401 H   0  0  0  0  0  0  0  0  0  0  0  0
    9.1750  -25.0604  -10.8117 H   0  0  0  0  0  0  0  0  0  0  0  0
  1  2  2  0  0  0  0
  1  3  1  0  0  0  0
  2  5  1  0  0  0  0
  3  6  2  0  0  0  0
  4  5  2  0  0  0  0
  4  6  1  0  0  0  0
  5 17  1  0  0  0  0
  6 25  1  0  0  0  0
  7  9  1  0  0  0  0
  7 16  1  0  0  0  0
  7 18  2  0  0  0  0
  8 12  1  0  0  0  0
  8 17  1  0  0  0  0
  8 19  2  0  0  0  0
  9 10  1  0  0  0  0
 10 13  1  0  0  0  0
 11 12  1  0  0  0  0
 11 24  1  0  0  0  0
 12 16  1  0  0  0  0
 13 14  1  0  0  0  0
 13 16  1  0  0  0  0
 13 24  1  0  0  0  0
 15 22  1  0  0  0  0
 15 23  1  0  0  0  0
 15 25  1  0  0  0  0
 20 25  2  0  0  0  0
 21 25  2  0  0  0  0
  1 26  1  0  0  0  0
  2 27  1  0  0  0  0
  3 28  1  0  0  0  0
  4 29  1  0  0  0  0
  9 30  1  0  0  0  0
  9 31  1  0  0  0  0
 10 32  1  0  0  0  0
 10 33  1  0  0  0  0
 11 34  1  0  0  0  0
 11 35  1  0  0  0  0
 12 36  1  0  0  0  0
 14 37  1  0  0  0  0
 14 38  1  0  0  0  0
 14 39  1  0  0  0  0
 15 40  1  0  0  0  0
 17 41  1  0  0  0  0
M  END
> <Hybrid2>
-2.3528294563293457

> <Hybrid2>
-1.872582

$$$$
C66488015
  -OEChem-02152218493D

 43 46  0     1  0  0  0  0  0999 V2000
   13.7109  -25.6794  -13.8062 C   0  0  0  0  0  0  0  0  0  0  0  0
   14.2460  -26.8137  -13.2058 C   0  0  0  0  0  0  0  0  0  0  0  0
    4.6827  -28.3073  -10.5456 C   0  0  0  0  0  0  0  0  0  0  0  0
   12.5834  -25.0543  -13.2657 C   0  0  0  0  0  0  0  0  0  0  0  0
    4.4448  -29.6743  -10.3999 C   0  0  0  0  0  0  0  0  0  0  0  0
   13.6710  -27.3531  -12.0524 C   0  0  0  0  0  0  0  0  0  0  0  0
    5.1324  -28.1259   -8.1769 C   0  0  0  0  0  0  0  0  0  0  0  0
    5.0309  -27.5354   -9.4368 C   0  0  0  0  0  0  0  0  0  0  0  0
   11.9827  -25.5788  -12.1008 C   0  0  0  0  0  0  0  0  0  0  0  0
    4.5589  -30.2683   -9.1426 C   0  0  0  0  0  0  0  0  0  0  0  0
    4.8814  -29.4902   -8.0279 C   0  0  0  0  0  0  0  0  0  0  0  0
   12.5385  -26.7202  -11.5150 C   0  0  0  0  0  0  0  0  0  0  0  0
   10.5878  -25.8079  -10.4071 C   0  0  0  0  0  0  0  0  0  0  0  0
    4.8074  -32.1693   -7.8348 C   0  0  0  0  0  0  0  0  0  0  0  0
    4.3731  -31.3018   -6.6694 C   0  0  0  0  0  0  0  0  0  0  0  0
    9.4455  -25.5538   -9.4725 C   0  0  0  0  0  0  0  0  0  0  0  0
    6.6919  -25.6796   -9.1123 C   0  0  0  0  0  0  0  0  0  0  0  0
    5.2912  -26.0755   -9.5978 C   0  0  2  0  0  0  0  0  0  0  0  0
   10.8661  -25.0683  -11.4550 N   0  0  0  0  0  0  0  0  0  0  0  0
    7.9932  -27.4610  -10.5145 O   0  0  0  0  0  0  0  0  0  0  0  0
    7.7667  -25.1188  -11.4281 O   0  0  0  0  0  0  0  0  0  0  0  0
    4.3332  -31.6179   -9.0664 O   0  0  0  0  0  0  0  0  0  0  0  0
    4.9763  -30.0085   -6.7627 O   0  0  0  0  0  0  0  0  0  0  0  0
    4.3076  -25.3464   -8.8520 O   0  0  0  0  0  0  0  0  0  0  0  0
   11.6179  -27.1430  -10.1198 S   0  0  0  0  0  0  0  0  0  0  0  0
    7.9482  -26.0242  -10.3072 S   0  0  0  0  0  0  0  0  0  0  0  0
   14.1717  -25.2744  -14.7030 H   0  0  0  0  0  0  0  0  0  0  0  0
   15.1230  -27.2884  -13.6382 H   0  0  0  0  0  0  0  0  0  0  0  0
    4.5980  -27.8524  -11.5291 H   0  0  0  0  0  0  0  0  0  0  0  0
   12.1745  -24.1680  -13.7426 H   0  0  0  0  0  0  0  0  0  0  0  0
    4.1818  -30.2692  -11.2703 H   0  0  0  0  0  0  0  0  0  0  0  0
   14.0951  -28.2383  -11.5885 H   0  0  0  0  0  0  0  0  0  0  0  0
    5.3963  -27.5231   -7.3113 H   0  0  0  0  0  0  0  0  0  0  0  0
    5.8996  -32.2581   -7.8878 H   0  0  0  0  0  0  0  0  0  0  0  0
    4.3881  -33.1755   -7.7371 H   0  0  0  0  0  0  0  0  0  0  0  0
    3.2832  -31.1792   -6.6407 H   0  0  0  0  0  0  0  0  0  0  0  0
    4.6908  -31.7498   -5.7228 H   0  0  0  0  0  0  0  0  0  0  0  0
    9.3663  -24.4977   -9.1997 H   0  0  0  0  0  0  0  0  0  0  0  0
    9.5256  -26.1464   -8.5567 H   0  0  0  0  0  0  0  0  0  0  0  0
    6.7616  -24.6079   -8.8995 H   0  0  0  0  0  0  0  0  0  0  0  0
    6.9724  -26.2419   -8.2154 H   0  0  0  0  0  0  0  0  0  0  0  0
    5.1653  -25.7719  -10.6512 H   0  0  0  0  0  0  0  0  0  0  0  0
    3.4502  -25.5961   -9.2239 H   0  0  0  0  0  0  0  0  0  0  0  0
  1  2  1  0  0  0  0
  1  4  2  0  0  0  0
  2  6  2  0  0  0  0
  3  5  2  0  0  0  0
  3  8  1  0  0  0  0
  4  9  1  0  0  0  0
  5 10  1  0  0  0  0
  6 12  1  0  0  0  0
  7  8  2  0  0  0  0
  7 11  1  0  0  0  0
  8 18  1  0  0  0  0
  9 12  2  0  0  0  0
  9 19  1  0  0  0  0
 10 11  2  0  0  0  0
 10 22  1  0  0  0  0
 11 23  1  0  0  0  0
 12 25  1  0  0  0  0
 13 16  1  0  0  0  0
 13 19  2  0  0  0  0
 13 25  1  0  0  0  0
 14 15  1  0  0  0  0
 14 22  1  0  0  0  0
 15 23  1  0  0  0  0
 16 26  1  0  0  0  0
 17 18  1  0  0  0  0
 17 26  1  0  0  0  0
 18 24  1  0  0  0  0
 20 26  2  0  0  0  0
 21 26  2  0  0  0  0
  1 27  1  0  0  0  0
  2 28  1  0  0  0  0
  3 29  1  0  0  0  0
  4 30  1  0  0  0  0
  5 31  1  0  0  0  0
  6 32  1  0  0  0  0
  7 33  1  0  0  0  0
 14 34  1  0  0  0  0
 14 35  1  0  0  0  0
 15 36  1  0  0  0  0
 15 37  1  0  0  0  0
 16 38  1  0  0  0  0
 16 39  1  0  0  0  0
 17 40  1  0  0  0  0
 17 41  1  0  0  0  0
 18 42  1  0  0  0  0
 24 43  1  0  0  0  0
M  END
> <Hybrid2>
-2.9100306034088135

> <Hybrid2>
-2.910031

$$$$
C66488015
  -OEChem-02152218493D

 43 46  0     1  0  0  0  0  0999 V2000
   14.7314  -27.1145  -12.8506 C   0  0  0  0  0  0  0  0  0  0  0  0
   15.0999  -28.0903  -11.9311 C   0  0  0  0  0  0  0  0  0  0  0  0
    5.4493  -27.5264   -7.8634 C   0  0  0  0  0  0  0  0  0  0  0  0
   13.6155  -26.3051  -12.6188 C   0  0  0  0  0  0  0  0  0  0  0  0
    5.0652  -28.7886   -7.4097 C   0  0  0  0  0  0  0  0  0  0  0  0
   14.3657  -28.2836  -10.7582 C   0  0  0  0  0  0  0  0  0  0  0  0
    5.2262  -28.2735  -10.1521 C   0  0  0  0  0  0  0  0  0  0  0  0
    5.5247  -27.2678   -9.2324 C   0  0  0  0  0  0  0  0  0  0  0  0
   12.8561  -26.4795  -11.4415 C   0  0  0  0  0  0  0  0  0  0  0  0
    4.7538  -29.7911   -8.3287 C   0  0  0  0  0  0  0  0  0  0  0  0
    4.8552  -29.5399   -9.6993 C   0  0  0  0  0  0  0  0  0  0  0  0
   13.2460  -27.4671  -10.5318 C   0  0  0  0  0  0  0  0  0  0  0  0
   11.2829  -26.1861   -9.9230 C   0  0  0  0  0  0  0  0  0  0  0  0
    3.7471  -31.8239   -8.8187 C   0  0  0  0  0  0  0  0  0  0  0  0
    4.5684  -31.8089  -10.0932 C   0  0  0  0  0  0  0  0  0  0  0  0
   10.0796  -25.6340   -9.2229 C   0  0  0  0  0  0  0  0  0  0  0  0
    7.3035  -25.4956   -9.1756 C   0  0  0  0  0  0  0  0  0  0  0  0
    5.9291  -25.9150   -9.7136 C   0  0  2  0  0  0  0  0  0  0  0  0
   11.7302  -25.7546  -11.0790 N   0  0  0  0  0  0  0  0  0  0  0  0
    8.5751  -27.6504   -9.9325 O   0  0  0  0  0  0  0  0  0  0  0  0
    8.6518  -25.6068  -11.4122 O   0  0  0  0  0  0  0  0  0  0  0  0
    4.3635  -31.0034   -7.8225 O   0  0  0  0  0  0  0  0  0  0  0  0
    4.5948  -30.4919  -10.6502 O   0  0  0  0  0  0  0  0  0  0  0  0
    4.9445  -24.9620   -9.2924 O   0  0  0  0  0  0  0  0  0  0  0  0
   12.1555  -27.4654   -9.1963 S   0  0  0  0  0  0  0  0  0  0  0  0
    8.6379  -26.2080  -10.0903 S   0  0  0  0  0  0  0  0  0  0  0  0
   15.3144  -26.9789  -13.7574 H   0  0  0  0  0  0  0  0  0  0  0  0
   15.9700  -28.7118  -12.1257 H   0  0  0  0  0  0  0  0  0  0  0  0
    5.6845  -26.7483   -7.1419 H   0  0  0  0  0  0  0  0  0  0  0  0
   13.3374  -25.5452  -13.3436 H   0  0  0  0  0  0  0  0  0  0  0  0
    5.0017  -28.9787   -6.3417 H   0  0  0  0  0  0  0  0  0  0  0  0
   14.6603  -29.0466  -10.0443 H   0  0  0  0  0  0  0  0  0  0  0  0
    5.2922  -28.0744  -11.2190 H   0  0  0  0  0  0  0  0  0  0  0  0
    2.7267  -31.4595   -8.9909 H   0  0  0  0  0  0  0  0  0  0  0  0
    3.6829  -32.8409   -8.4195 H   0  0  0  0  0  0  0  0  0  0  0  0
    5.6007  -32.1341   -9.9130 H   0  0  0  0  0  0  0  0  0  0  0  0
    4.1258  -32.4768  -10.8387 H   0  0  0  0  0  0  0  0  0  0  0  0
   10.0679  -24.5405   -9.2286 H   0  0  0  0  0  0  0  0  0  0  0  0
   10.0139  -25.9790   -8.1871 H   0  0  0  0  0  0  0  0  0  0  0  0
    7.4468  -24.4113   -9.2249 H   0  0  0  0  0  0  0  0  0  0  0  0
    7.4410  -25.8284   -8.1413 H   0  0  0  0  0  0  0  0  0  0  0  0
    5.9375  -25.8811  -10.8164 H   0  0  0  0  0  0  0  0  0  0  0  0
    4.1100  -25.2448   -9.6918 H   0  0  0  0  0  0  0  0  0  0  0  0
  1  2  1  0  0  0  0
  1  4  2  0  0  0  0
  2  6  2  0  0  0  0
  3  5  2  0  0  0  0
  3  8  1  0  0  0  0
  4  9  1  0  0  0  0
  5 10  1  0  0  0  0
  6 12  1  0  0  0  0
  7  8  2  0  0  0  0
  7 11  1  0  0  0  0
  8 18  1  0  0  0  0
  9 12  2  0  0  0  0
  9 19  1  0  0  0  0
 10 11  2  0  0  0  0
 10 22  1  0  0  0  0
 11 23  1  0  0  0  0
 12 25  1  0  0  0  0
 13 16  1  0  0  0  0
 13 19  2  0  0  0  0
 13 25  1  0  0  0  0
 14 15  1  0  0  0  0
 14 22  1  0  0  0  0
 15 23  1  0  0  0  0
 16 26  1  0  0  0  0
 17 18  1  0  0  0  0
 17 26  1  0  0  0  0
 18 24  1  0  0  0  0
 20 26  2  0  0  0  0
 21 26  2  0  0  0  0
  1 27  1  0  0  0  0
  2 28  1  0  0  0  0
  3 29  1  0  0  0  0
  4 30  1  0  0  0  0
  5 31  1  0  0  0  0
  6 32  1  0  0  0  0
  7 33  1  0  0  0  0
 14 34  1  0  0  0  0
 14 35  1  0  0  0  0
 15 36  1  0  0  0  0
 15 37  1  0  0  0  0
 16 38  1  0  0  0  0
 16 39  1  0  0  0  0
 17 40  1  0  0  0  0
 17 41  1  0  0  0  0
 18 42  1  0  0  0  0
 24 43  1  0  0  0  0
M  END
> <Hybrid2>
-2.9100306034088135

> <Hybrid2>
-2.785284

$$$$
C66648715
  -OEChem-02152218493D

 60 62  0     1  0  0  0  0  0999 V2000
    9.3104  -26.4756  -10.1469 C   0  0  0  0  0  0  0  0  0  0  0  0
   11.5134  -26.8617  -12.3726 C   0  0  0  0  0  0  0  0  0  0  0  0
    3.6031  -29.6377   -8.5147 C   0  0  0  0  0  0  0  0  0  0  0  0
   -0.4804  -32.2491   -7.6105 C   0  0  0  0  0  0  0  0  0  0  0  0
   -0.8385  -30.9717   -8.3721 C   0  0  0  0  0  0  0  0  0  0  0  0
    7.8376  -28.4351  -10.0395 C   0  0  0  0  0  0  0  0  0  0  0  0
    7.2945  -26.3320   -8.7507 C   0  0  0  0  0  0  0  0  0  0  0  0
    0.9338  -32.0423   -7.0769 C   0  0  0  0  0  0  0  0  0  0  0  0
    0.3704  -30.0507   -8.2442 C   0  0  0  0  0  0  0  0  0  0  0  0
    6.7777  -29.1972   -9.2468 C   0  0  0  0  0  0  0  0  0  0  0  0
    6.2325  -27.0899   -7.9568 C   0  0  0  0  0  0  0  0  0  0  0  0
   13.0061  -26.3615  -10.4190 C   0  0  0  0  0  0  0  0  0  0  0  0
   11.1894  -27.9735   -9.3754 C   0  0  0  0  0  0  0  0  0  0  0  0
    8.3968  -27.2688   -9.2323 C   0  0  0  0  0  0  0  0  0  0  0  0
   11.6193  -26.2103  -11.0229 C   0  0  2  0  0  0  0  0  0  0  0  0
    1.5382  -31.0059   -8.0191 C   0  0  0  0  0  0  0  0  0  0  0  0
    5.6649  -28.2669   -8.7549 C   0  0  0  0  0  0  0  0  0  0  0  0
   12.8363  -27.1818  -14.4687 C   0  0  0  0  0  0  0  0  0  0  0  0
   12.7549  -24.9549  -13.4136 C   0  0  0  0  0  0  0  0  0  0  0  0
    2.7688  -30.3232   -7.4484 C   0  0  0  0  0  0  0  0  0  0  0  0
   10.6442  -26.8729  -10.1623 N   0  0  0  0  0  0  0  0  0  0  0  0
    4.7022  -28.9957   -7.9650 N   0  0  0  0  0  0  0  0  0  0  0  0
   12.3357  -26.3537  -13.3790 N   0  0  0  0  0  0  0  0  0  0  0  0
    8.8576  -25.5441  -10.8152 O   0  0  0  0  0  0  0  0  0  0  0  0
   10.7226  -27.7957  -12.5297 O   0  0  0  0  0  0  0  0  0  0  0  0
    3.3203  -29.6649   -9.7094 O   0  0  0  0  0  0  0  0  0  0  0  0
   12.9849  -27.9642   -9.5770 S   0  0  0  0  0  0  0  0  0  0  0  0
   -1.1864  -32.4500   -6.7982 H   0  0  0  0  0  0  0  0  0  0  0  0
   -0.5106  -33.1078   -8.2913 H   0  0  0  0  0  0  0  0  0  0  0  0
   -1.0269  -31.2099   -9.4253 H   0  0  0  0  0  0  0  0  0  0  0  0
   -1.7433  -30.5003   -7.9756 H   0  0  0  0  0  0  0  0  0  0  0  0
    8.6510  -29.1144  -10.2838 H   0  0  0  0  0  0  0  0  0  0  0  0
    7.4053  -28.0852  -10.9729 H   0  0  0  0  0  0  0  0  0  0  0  0
    6.8240  -25.8299   -9.5917 H   0  0  0  0  0  0  0  0  0  0  0  0
    7.7355  -25.5701   -8.1121 H   0  0  0  0  0  0  0  0  0  0  0  0
    0.8886  -31.6578   -6.0504 H   0  0  0  0  0  0  0  0  0  0  0  0
    1.5063  -32.9750   -7.0605 H   0  0  0  0  0  0  0  0  0  0  0  0
    0.5064  -29.4271   -9.1330 H   0  0  0  0  0  0  0  0  0  0  0  0
    0.2386  -29.3845   -7.3826 H   0  0  0  0  0  0  0  0  0  0  0  0
    6.3370  -29.9675   -9.8849 H   0  0  0  0  0  0  0  0  0  0  0  0
    7.2434  -29.7145   -8.4052 H   0  0  0  0  0  0  0  0  0  0  0  0
    6.6548  -27.4389   -7.0117 H   0  0  0  0  0  0  0  0  0  0  0  0
    5.4161  -26.4098   -7.7013 H   0  0  0  0  0  0  0  0  0  0  0  0
   13.8040  -26.3388  -11.1667 H   0  0  0  0  0  0  0  0  0  0  0  0
   13.1930  -25.5823   -9.6735 H   0  0  0  0  0  0  0  0  0  0  0  0
   10.9234  -27.8426   -8.3230 H   0  0  0  0  0  0  0  0  0  0  0  0
   10.7704  -28.9157   -9.7400 H   0  0  0  0  0  0  0  0  0  0  0  0
    8.9826  -27.6104   -8.4263 H   0  0  0  0  0  0  0  0  0  0  0  0
   11.3564  -25.1549  -11.1550 H   0  0  0  0  0  0  0  0  0  0  0  0
    1.8024  -31.4882   -8.9694 H   0  0  0  0  0  0  0  0  0  0  0  0
    5.1107  -27.8823   -9.6163 H   0  0  0  0  0  0  0  0  0  0  0  0
   12.1254  -27.1536  -15.3077 H   0  0  0  0  0  0  0  0  0  0  0  0
   13.8120  -26.7984  -14.8020 H   0  0  0  0  0  0  0  0  0  0  0  0
   12.9496  -28.2185  -14.1190 H   0  0  0  0  0  0  0  0  0  0  0  0
   13.6972  -24.8400  -12.8579 H   0  0  0  0  0  0  0  0  0  0  0  0
   12.9047  -24.6429  -14.4577 H   0  0  0  0  0  0  0  0  0  0  0  0
   11.9781  -24.3279  -12.9514 H   0  0  0  0  0  0  0  0  0  0  0  0
    3.3966  -31.0636   -6.9395 H   0  0  0  0  0  0  0  0  0  0  0  0
    2.4633  -29.5730   -6.7103 H   0  0  0  0  0  0  0  0  0  0  0  0
    4.8359  -29.0406   -6.9596 H   0  0  0  0  0  0  0  0  0  0  0  0
  1 14  1  0  0  0  0
  1 21  1  0  0  0  0
  1 24  2  0  0  0  0
  2 15  1  0  0  0  0
  2 23  1  0  0  0  0
  2 25  2  0  0  0  0
  3 20  1  0  0  0  0
  3 22  1  0  0  0  0
  3 26  2  0  0  0  0
  4  5  1  0  0  0  0
  4  8  1  0  0  0  0
  5  9  1  0  0  0  0
  6 10  1  0  0  0  0
  6 14  1  0  0  0  0
  7 11  1  0  0  0  0
  7 14  1  0  0  0  0
  8 16  1  0  0  0  0
  9 16  1  0  0  0  0
 10 17  1  0  0  0  0
 11 17  1  0  0  0  0
 12 15  1  0  0  0  0
 12 27  1  0  0  0  0
 13 21  1  0  0  0  0
 13 27  1  0  0  0  0
 15 21  1  0  0  0  0
 16 20  1  0  0  0  0
 17 22  1  0  0  0  0
 18 23  1  0  0  0  0
 19 23  1  0  0  0  0
  4 28  1  0  0  0  0
  4 29  1  0  0  0  0
  5 30  1  0  0  0  0
  5 31  1  0  0  0  0
  6 32  1  0  0  0  0
  6 33  1  0  0  0  0
  7 34  1  0  0  0  0
  7 35  1  0  0  0  0
  8 36  1  0  0  0  0
  8 37  1  0  0  0  0
  9 38  1  0  0  0  0
  9 39  1  0  0  0  0
 10 40  1  0  0  0  0
 10 41  1  0  0  0  0
 11 42  1  0  0  0  0
 11 43  1  0  0  0  0
 12 44  1  0  0  0  0
 12 45  1  0  0  0  0
 13 46  1  0  0  0  0
 13 47  1  0  0  0  0
 14 48  1  0  0  0  0
 15 49  1  0  0  0  0
 16 50  1  0  0  0  0
 17 51  1  0  0  0  0
 18 52  1  0  0  0  0
 18 53  1  0  0  0  0
 18 54  1  0  0  0  0
 19 55  1  0  0  0  0
 19 56  1  0  0  0  0
 19 57  1  0  0  0  0
 20 58  1  0  0  0  0
 20 59  1  0  0  0  0
 22 60  1  0  0  0  0
M  END
> <Hybrid2>
-4.387693405151367

> <Hybrid2>
-4.387693

$$$$
C66648715
  -OEChem-02152218493D

 60 62  0     1  0  0  0  0  0999 V2000
   10.6557  -26.0307  -11.5145 C   0  0  0  0  0  0  0  0  0  0  0  0
   12.7159  -26.7324  -13.7991 C   0  0  0  0  0  0  0  0  0  0  0  0
    4.8727  -28.6976   -9.3511 C   0  0  0  0  0  0  0  0  0  0  0  0
    0.7019  -30.9748   -8.0354 C   0  0  0  0  0  0  0  0  0  0  0  0
    0.3768  -29.7461   -8.8867 C   0  0  0  0  0  0  0  0  0  0  0  0
    9.0833  -27.8826  -11.1700 C   0  0  0  0  0  0  0  0  0  0  0  0
    8.7258  -25.6507  -10.0432 C   0  0  0  0  0  0  0  0  0  0  0  0
    2.1511  -30.8095   -7.5883 C   0  0  0  0  0  0  0  0  0  0  0  0
    1.6403  -28.8919   -8.8952 C   0  0  0  0  0  0  0  0  0  0  0  0
    8.0249  -28.5109  -10.2659 C   0  0  0  0  0  0  0  0  0  0  0  0
    7.6655  -26.2746   -9.1382 C   0  0  0  0  0  0  0  0  0  0  0  0
   14.3330  -26.1617  -11.9677 C   0  0  0  0  0  0  0  0  0  0  0  0
   12.4855  -27.5692  -10.7054 C   0  0  0  0  0  0  0  0  0  0  0  0
    9.7477  -26.6887  -10.4932 C   0  0  0  0  0  0  0  0  0  0  0  0
   12.9275  -25.9784  -12.5169 C   0  0  2  0  0  0  0  0  0  0  0  0
    2.7630  -29.8934   -8.6435 C   0  0  0  0  0  0  0  0  0  0  0  0
    6.9927  -27.4778   -9.8045 C   0  0  0  0  0  0  0  0  0  0  0  0
   13.9088  -27.3048  -15.9194 C   0  0  0  0  0  0  0  0  0  0  0  0
   14.0065  -24.9969  -15.0573 C   0  0  0  0  0  0  0  0  0  0  0  0
    4.0576  -29.2406   -8.1918 C   0  0  0  0  0  0  0  0  0  0  0  0
   11.9627  -26.5073  -11.5579 N   0  0  0  0  0  0  0  0  0  0  0  0
    6.0329  -28.0792   -8.9106 N   0  0  0  0  0  0  0  0  0  0  0  0
   13.5122  -26.3603  -14.8828 N   0  0  0  0  0  0  0  0  0  0  0  0
   10.2218  -25.1327  -12.2386 O   0  0  0  0  0  0  0  0  0  0  0  0
   11.8671  -27.6271  -13.8381 O   0  0  0  0  0  0  0  0  0  0  0  0
    4.5275  -28.8072  -10.5245 O   0  0  0  0  0  0  0  0  0  0  0  0
   14.2659  -27.6845  -10.9907 S   0  0  0  0  0  0  0  0  0  0  0  0
    0.0287  -31.0646   -7.1767 H   0  0  0  0  0  0  0  0  0  0  0  0
    0.5886  -31.8838   -8.6376 H   0  0  0  0  0  0  0  0  0  0  0  0
    0.1213  -30.0594   -9.9055 H   0  0  0  0  0  0  0  0  0  0  0  0
   -0.4785  -29.1898   -8.4905 H   0  0  0  0  0  0  0  0  0  0  0  0
    9.8438  -28.6274  -11.3926 H   0  0  0  0  0  0  0  0  0  0  0  0
    8.6236  -27.5863  -12.1088 H   0  0  0  0  0  0  0  0  0  0  0  0
    8.2413  -25.1930  -10.9013 H   0  0  0  0  0  0  0  0  0  0  0  0
    9.2411  -24.8660   -9.4938 H   0  0  0  0  0  0  0  0  0  0  0  0
    2.1805  -30.3389   -6.5978 H   0  0  0  0  0  0  0  0  0  0  0  0
    2.6707  -31.7702   -7.5184 H   0  0  0  0  0  0  0  0  0  0  0  0
    1.7648  -28.3537   -9.8398 H   0  0  0  0  0  0  0  0  0  0  0  0
    1.5905  -28.1494   -8.0891 H   0  0  0  0  0  0  0  0  0  0  0  0
    7.5095  -29.3039  -10.8139 H   0  0  0  0  0  0  0  0  0  0  0  0
    8.5038  -28.9834   -9.4055 H   0  0  0  0  0  0  0  0  0  0  0  0
    8.1160  -26.5684   -8.1873 H   0  0  0  0  0  0  0  0  0  0  0  0
    6.9027  -25.5278   -8.9043 H   0  0  0  0  0  0  0  0  0  0  0  0
   15.0913  -26.2493  -12.7511 H   0  0  0  0  0  0  0  0  0  0  0  0
   14.6015  -25.3358  -11.3017 H   0  0  0  0  0  0  0  0  0  0  0  0
   12.2819  -27.3354   -9.6569 H   0  0  0  0  0  0  0  0  0  0  0  0
   11.9962  -28.5117  -10.9675 H   0  0  0  0  0  0  0  0  0  0  0  0
   10.3544  -26.9965   -9.6890 H   0  0  0  0  0  0  0  0  0  0  0  0
   12.7175  -24.9238  -12.7271 H   0  0  0  0  0  0  0  0  0  0  0  0
    2.9503  -30.4681   -9.5600 H   0  0  0  0  0  0  0  0  0  0  0  0
    6.4170  -27.1337  -10.6690 H   0  0  0  0  0  0  0  0  0  0  0  0
   13.1582  -27.3039  -16.7235 H   0  0  0  0  0  0  0  0  0  0  0  0
   14.8858  -27.0098  -16.3296 H   0  0  0  0  0  0  0  0  0  0  0  0
   13.9820  -28.3137  -15.4873 H   0  0  0  0  0  0  0  0  0  0  0  0
   14.9812  -24.8929  -14.5582 H   0  0  0  0  0  0  0  0  0  0  0  0
   14.1194  -24.7825  -16.1303 H   0  0  0  0  0  0  0  0  0  0  0  0
   13.2908  -24.2881  -14.6151 H   0  0  0  0  0  0  0  0  0  0  0  0
    4.6685  -29.9724   -7.6509 H   0  0  0  0  0  0  0  0  0  0  0  0
    3.8330  -28.4145   -7.5077 H   0  0  0  0  0  0  0  0  0  0  0  0
    6.2156  -28.0481   -7.9125 H   0  0  0  0  0  0  0  0  0  0  0  0
  1 14  1  0  0  0  0
  1 21  1  0  0  0  0
  1 24  2  0  0  0  0
  2 15  1  0  0  0  0
  2 23  1  0  0  0  0
  2 25  2  0  0  0  0
  3 20  1  0  0  0  0
  3 22  1  0  0  0  0
  3 26  2  0  0  0  0
  4  5  1  0  0  0  0
  4  8  1  0  0  0  0
  5  9  1  0  0  0  0
  6 10  1  0  0  0  0
  6 14  1  0  0  0  0
  7 11  1  0  0  0  0
  7 14  1  0  0  0  0
  8 16  1  0  0  0  0
  9 16  1  0  0  0  0
 10 17  1  0  0  0  0
 11 17  1  0  0  0  0
 12 15  1  0  0  0  0
 12 27  1  0  0  0  0
 13 21  1  0  0  0  0
 13 27  1  0  0  0  0
 15 21  1  0  0  0  0
 16 20  1  0  0  0  0
 17 22  1  0  0  0  0
 18 23  1  0  0  0  0
 19 23  1  0  0  0  0
  4 28  1  0  0  0  0
  4 29  1  0  0  0  0
  5 30  1  0  0  0  0
  5 31  1  0  0  0  0
  6 32  1  0  0  0  0
  6 33  1  0  0  0  0
  7 34  1  0  0  0  0
  7 35  1  0  0  0  0
  8 36  1  0  0  0  0
  8 37  1  0  0  0  0
  9 38  1  0  0  0  0
  9 39  1  0  0  0  0
 10 40  1  0  0  0  0
 10 41  1  0  0  0  0
 11 42  1  0  0  0  0
 11 43  1  0  0  0  0
 12 44  1  0  0  0  0
 12 45  1  0  0  0  0
 13 46  1  0  0  0  0
 13 47  1  0  0  0  0
 14 48  1  0  0  0  0
 15 49  1  0  0  0  0
 16 50  1  0  0  0  0
 17 51  1  0  0  0  0
 18 52  1  0  0  0  0
 18 53  1  0  0  0  0
 18 54  1  0  0  0  0
 19 55  1  0  0  0  0
 19 56  1  0  0  0  0
 19 57  1  0  0  0  0
 20 58  1  0  0  0  0
 20 59  1  0  0  0  0
 22 60  1  0  0  0  0
M  END
> <Hybrid2>
-4.387693405151367

> <Hybrid2>
-3.887795

$$$$
C66648748
  -OEChem-02152218493D

 51 54  0     1  0  0  0  0  0999 V2000
    9.5299  -27.9354  -10.1687 C   0  0  0  0  0  0  0  0  0  0  0  0
    8.2372  -28.4219   -9.9471 C   0  0  0  0  0  0  0  0  0  0  0  0
    8.7558  -25.6189  -10.0713 C   0  0  0  0  0  0  0  0  0  0  0  0
    9.7862  -26.5493  -10.2302 C   0  0  0  0  0  0  0  0  0  0  0  0
    7.2325  -27.4896   -9.7925 C   0  0  0  0  0  0  0  0  0  0  0  0
    7.4921  -26.1218   -9.8542 C   0  0  0  0  0  0  0  0  0  0  0  0
    5.2449  -26.3758   -9.4761 C   0  0  0  0  0  0  0  0  0  0  0  0
   11.1589  -26.0782  -10.4650 C   0  0  0  0  0  0  0  0  0  0  0  0
   13.5236  -28.0347  -11.2670 C   0  0  0  0  0  0  0  0  0  0  0  0
    3.5113  -30.2673   -8.3612 C   0  0  0  0  0  0  0  0  0  0  0  0
    3.2623  -30.2888   -9.8719 C   0  0  0  0  0  0  0  0  0  0  0  0
    4.4659  -29.1035   -8.1079 C   0  0  0  0  0  0  0  0  0  0  0  0
    4.0808  -29.1377  -10.4506 C   0  0  0  0  0  0  0  0  0  0  0  0
   13.7028  -26.3617  -13.1313 C   0  0  0  0  0  0  0  0  0  0  0  0
   11.0945  -26.7545  -12.9060 C   0  0  0  0  0  0  0  0  0  0  0  0
   13.2302  -26.6306  -11.7122 C   0  0  1  0  0  0  0  0  0  0  0  0
    5.1997  -28.9452   -9.4341 C   0  0  0  0  0  0  0  0  0  0  0  0
   15.1373  -29.5504  -10.1072 C   0  0  0  0  0  0  0  0  0  0  0  0
   15.6682  -27.1527  -10.3269 C   0  0  0  0  0  0  0  0  0  0  0  0
    6.2945  -25.4320   -9.6639 N   0  0  0  0  0  0  0  0  0  0  0  0
    5.8586  -27.6576   -9.5612 N   0  0  0  0  0  0  0  0  0  0  0  0
   11.7816  -26.4716  -11.6488 N   0  0  0  0  0  0  0  0  0  0  0  0
   14.7286  -28.2388  -10.5935 N   0  0  0  0  0  0  0  0  0  0  0  0
    4.0645  -26.1204   -9.2826 O   0  0  0  0  0  0  0  0  0  0  0  0
   11.6583  -25.3639   -9.5980 O   0  0  0  0  0  0  0  0  0  0  0  0
   12.7062  -28.9264  -11.5100 O   0  0  0  0  0  0  0  0  0  0  0  0
   12.3465  -26.9052  -14.2006 S   0  0  0  0  0  0  0  0  0  0  0  0
   10.3452  -28.6447  -10.2945 H   0  0  0  0  0  0  0  0  0  0  0  0
    8.0481  -29.4879   -9.9008 H   0  0  0  0  0  0  0  0  0  0  0  0
    8.9399  -24.5513  -10.1164 H   0  0  0  0  0  0  0  0  0  0  0  0
    2.5812  -30.1495   -7.7962 H   0  0  0  0  0  0  0  0  0  0  0  0
    3.9699  -31.2122   -8.0473 H   0  0  0  0  0  0  0  0  0  0  0  0
    3.5988  -31.2444  -10.2902 H   0  0  0  0  0  0  0  0  0  0  0  0
    2.1994  -30.1818  -10.1111 H   0  0  0  0  0  0  0  0  0  0  0  0
    3.8882  -28.2015   -7.8691 H   0  0  0  0  0  0  0  0  0  0  0  0
    5.1443  -29.3033   -7.2727 H   0  0  0  0  0  0  0  0  0  0  0  0
    4.4562  -29.3637  -11.4534 H   0  0  0  0  0  0  0  0  0  0  0  0
    3.4518  -28.2409  -10.5169 H   0  0  0  0  0  0  0  0  0  0  0  0
   13.8595  -25.2906  -13.2922 H   0  0  0  0  0  0  0  0  0  0  0  0
   14.6213  -26.8983  -13.3859 H   0  0  0  0  0  0  0  0  0  0  0  0
   10.5366  -27.6901  -12.8030 H   0  0  0  0  0  0  0  0  0  0  0  0
   10.3986  -25.9431  -13.1386 H   0  0  0  0  0  0  0  0  0  0  0  0
   13.7167  -25.9598  -10.9951 H   0  0  0  0  0  0  0  0  0  0  0  0
    5.9628  -29.7182   -9.5509 H   0  0  0  0  0  0  0  0  0  0  0  0
   15.7134  -30.0684  -10.8880 H   0  0  0  0  0  0  0  0  0  0  0  0
   15.7619  -29.4302   -9.2097 H   0  0  0  0  0  0  0  0  0  0  0  0
   14.2449  -30.1427   -9.8563 H   0  0  0  0  0  0  0  0  0  0  0  0
   15.4313  -26.6921   -9.3564 H   0  0  0  0  0  0  0  0  0  0  0  0
   16.6928  -27.5522  -10.3026 H   0  0  0  0  0  0  0  0  0  0  0  0
   15.5885  -26.3958  -11.1211 H   0  0  0  0  0  0  0  0  0  0  0  0
    6.2011  -24.4237   -9.6615 H   0  0  0  0  0  0  0  0  0  0  0  0
  1  2  2  0  0  0  0
  1  4  1  0  0  0  0
  2  5  1  0  0  0  0
  3  4  2  0  0  0  0
  3  6  1  0  0  0  0
  4  8  1  0  0  0  0
  5  6  2  0  0  0  0
  5 21  1  0  0  0  0
  6 20  1  0  0  0  0
  7 20  1  0  0  0  0
  7 21  1  0  0  0  0
  7 24  2  0  0  0  0
  8 22  1  0  0  0  0
  8 25  2  0  0  0  0
  9 16  1  0  0  0  0
  9 23  1  0  0  0  0
  9 26  2  0  0  0  0
 10 11  1  0  0  0  0
 10 12  1  0  0  0  0
 11 13  1  0  0  0  0
 12 17  1  0  0  0  0
 13 17  1  0  0  0  0
 14 16  1  0  0  0  0
 14 27  1  0  0  0  0
 15 22  1  0  0  0  0
 15 27  1  0  0  0  0
 16 22  1  0  0  0  0
 17 21  1  0  0  0  0
 18 23  1  0  0  0  0
 19 23  1  0  0  0  0
  1 28  1  0  0  0  0
  2 29  1  0  0  0  0
  3 30  1  0  0  0  0
 10 31  1  0  0  0  0
 10 32  1  0  0  0  0
 11 33  1  0  0  0  0
 11 34  1  0  0  0  0
 12 35  1  0  0  0  0
 12 36  1  0  0  0  0
 13 37  1  0  0  0  0
 13 38  1  0  0  0  0
 14 39  1  0  0  0  0
 14 40  1  0  0  0  0
 15 41  1  0  0  0  0
 15 42  1  0  0  0  0
 16 43  1  0  0  0  0
 17 44  1  0  0  0  0
 18 45  1  0  0  0  0
 18 46  1  0  0  0  0
 18 47  1  0  0  0  0
 19 48  1  0  0  0  0
 19 49  1  0  0  0  0
 19 50  1  0  0  0  0
 20 51  1  0  0  0  0
M  END
> <Hybrid2>
-4.291220188140869

> <Hybrid2>
-4.291220

$$$$
C66648748
  -OEChem-02152218493D

 51 54  0     1  0  0  0  0  0999 V2000
   10.0412  -27.4416  -10.0653 C   0  0  0  0  0  0  0  0  0  0  0  0
    8.7967  -27.9300   -9.6537 C   0  0  0  0  0  0  0  0  0  0  0  0
    9.1204  -25.2118  -10.4586 C   0  0  0  0  0  0  0  0  0  0  0  0
   10.2012  -26.0976  -10.4634 C   0  0  0  0  0  0  0  0  0  0  0  0
    7.7412  -27.0420   -9.6551 C   0  0  0  0  0  0  0  0  0  0  0  0
    7.9056  -25.7155  -10.0494 C   0  0  0  0  0  0  0  0  0  0  0  0
    5.7023  -25.9919   -9.4783 C   0  0  0  0  0  0  0  0  0  0  0  0
   11.5259  -25.6231  -10.8895 C   0  0  0  0  0  0  0  0  0  0  0  0
   13.9722  -27.5854  -11.3663 C   0  0  0  0  0  0  0  0  0  0  0  0
    4.2903  -29.5971   -7.3805 C   0  0  0  0  0  0  0  0  0  0  0  0
    3.9673  -29.9872   -8.8256 C   0  0  0  0  0  0  0  0  0  0  0  0
    5.1767  -28.3575   -7.4666 C   0  0  0  0  0  0  0  0  0  0  0  0
    4.6771  -28.9633   -9.7075 C   0  0  0  0  0  0  0  0  0  0  0  0
   13.9452  -26.3919  -13.5758 C   0  0  0  0  0  0  0  0  0  0  0  0
   11.3836  -26.8580  -13.0973 C   0  0  0  0  0  0  0  0  0  0  0  0
   13.5638  -26.3434  -12.1056 C   0  0  1  0  0  0  0  0  0  0  0  0
    5.8305  -28.4776   -8.8379 C   0  0  0  0  0  0  0  0  0  0  0  0
   15.7397  -28.6974   -9.9931 C   0  0  0  0  0  0  0  0  0  0  0  0
   16.0980  -26.3944  -10.7974 C   0  0  0  0  0  0  0  0  0  0  0  0
    6.6758  -25.0647   -9.9475 N   0  0  0  0  0  0  0  0  0  0  0  0
    6.3949  -27.2233   -9.3028 N   0  0  0  0  0  0  0  0  0  0  0  0
   12.1128  -26.2508  -11.9873 N   0  0  0  0  0  0  0  0  0  0  0  0
   15.2205  -27.5610  -10.7433 N   0  0  0  0  0  0  0  0  0  0  0  0
    4.5187  -25.7610   -9.2734 O   0  0  0  0  0  0  0  0  0  0  0  0
   12.0197  -24.6991  -10.2461 O   0  0  0  0  0  0  0  0  0  0  0  0
   13.2047  -28.5513  -11.3423 O   0  0  0  0  0  0  0  0  0  0  0  0
   12.5760  -27.2432  -14.3997 S   0  0  0  0  0  0  0  0  0  0  0  0
   10.8946  -28.1164  -10.0754 H   0  0  0  0  0  0  0  0  0  0  0  0
    8.6815  -28.9634   -9.3490 H   0  0  0  0  0  0  0  0  0  0  0  0
    9.2305  -24.1767  -10.7622 H   0  0  0  0  0  0  0  0  0  0  0  0
    3.3840  -29.3988   -6.7994 H   0  0  0  0  0  0  0  0  0  0  0  0
    4.8260  -30.4157   -6.8861 H   0  0  0  0  0  0  0  0  0  0  0  0
    4.3452  -30.9953   -9.0314 H   0  0  0  0  0  0  0  0  0  0  0  0
    2.8890  -29.9961   -9.0138 H   0  0  0  0  0  0  0  0  0  0  0  0
    4.5530  -27.4566   -7.4070 H   0  0  0  0  0  0  0  0  0  0  0  0
    5.9082  -28.3186   -6.6536 H   0  0  0  0  0  0  0  0  0  0  0  0
    5.0156  -29.3991  -10.6525 H   0  0  0  0  0  0  0  0  0  0  0  0
    3.9872  -28.1420   -9.9393 H   0  0  0  0  0  0  0  0  0  0  0  0
   14.0219  -25.3822  -13.9908 H   0  0  0  0  0  0  0  0  0  0  0  0
   14.8834  -26.9240  -13.7576 H   0  0  0  0  0  0  0  0  0  0  0  0
   10.8952  -27.7712  -12.7440 H   0  0  0  0  0  0  0  0  0  0  0  0
   10.6244  -26.1624  -13.4664 H   0  0  0  0  0  0  0  0  0  0  0  0
   14.0401  -25.4977  -11.5968 H   0  0  0  0  0  0  0  0  0  0  0  0
    6.6365  -29.2149   -8.8211 H   0  0  0  0  0  0  0  0  0  0  0  0
   16.3089  -29.3536  -10.6679 H   0  0  0  0  0  0  0  0  0  0  0  0
   16.3994  -28.3362   -9.1904 H   0  0  0  0  0  0  0  0  0  0  0  0
   14.9026  -29.2603   -9.5544 H   0  0  0  0  0  0  0  0  0  0  0  0
   15.8801  -25.7313   -9.9473 H   0  0  0  0  0  0  0  0  0  0  0  0
   17.1468  -26.7221  -10.7474 H   0  0  0  0  0  0  0  0  0  0  0  0
   15.9280  -25.8514  -11.7388 H   0  0  0  0  0  0  0  0  0  0  0  0
    6.5157  -24.0907  -10.1733 H   0  0  0  0  0  0  0  0  0  0  0  0
  1  2  2  0  0  0  0
  1  4  1  0  0  0  0
  2  5  1  0  0  0  0
  3  4  2  0  0  0  0
  3  6  1  0  0  0  0
  4  8  1  0  0  0  0
  5  6  2  0  0  0  0
  5 21  1  0  0  0  0
  6 20  1  0  0  0  0
  7 20  1  0  0  0  0
  7 21  1  0  0  0  0
  7 24  2  0  0  0  0
  8 22  1  0  0  0  0
  8 25  2  0  0  0  0
  9 16  1  0  0  0  0
  9 23  1  0  0  0  0
  9 26  2  0  0  0  0
 10 11  1  0  0  0  0
 10 12  1  0  0  0  0
 11 13  1  0  0  0  0
 12 17  1  0  0  0  0
 13 17  1  0  0  0  0
 14 16  1  0  0  0  0
 14 27  1  0  0  0  0
 15 22  1  0  0  0  0
 15 27  1  0  0  0  0
 16 22  1  0  0  0  0
 17 21  1  0  0  0  0
 18 23  1  0  0  0  0
 19 23  1  0  0  0  0
  1 28  1  0  0  0  0
  2 29  1  0  0  0  0
  3 30  1  0  0  0  0
 10 31  1  0  0  0  0
 10 32  1  0  0  0  0
 11 33  1  0  0  0  0
 11 34  1  0  0  0  0
 12 35  1  0  0  0  0
 12 36  1  0  0  0  0
 13 37  1  0  0  0  0
 13 38  1  0  0  0  0
 14 39  1  0  0  0  0
 14 40  1  0  0  0  0
 15 41  1  0  0  0  0
 15 42  1  0  0  0  0
 16 43  1  0  0  0  0
 17 44  1  0  0  0  0
 18 45  1  0  0  0  0
 18 46  1  0  0  0  0
 18 47  1  0  0  0  0
 19 48  1  0  0  0  0
 19 49  1  0  0  0  0
 19 50  1  0  0  0  0
 20 51  1  0  0  0  0
M  END
> <Hybrid2>
-4.291220188140869

> <Hybrid2>
-3.717912

$$$$
C66756453
  -OEChem-02152218493D

 51 54  0     1  0  0  0  0  0999 V2000
   15.0012  -27.9509  -10.2643 C   0  0  0  0  0  0  0  0  0  0  0  0
   15.9995  -28.3153  -11.1405 C   0  0  0  0  0  0  0  0  0  0  0  0
   13.8168  -27.5549  -10.9478 C   0  0  0  0  0  0  0  0  0  0  0  0
   13.9500  -27.6303  -12.3220 C   0  0  0  0  0  0  0  0  0  0  0  0
   12.5522  -27.1045  -10.3878 C   0  0  0  0  0  0  0  0  0  0  0  0
    7.0085  -26.1406   -8.2094 C   0  0  0  0  0  0  0  0  0  0  0  0
   11.8714  -26.9193  -12.7612 C   0  0  0  0  0  0  0  0  0  0  0  0
    9.3808  -27.2910  -10.7346 C   0  0  0  0  0  0  0  0  0  0  0  0
    8.2892  -25.8941   -8.9683 C   0  0  0  0  0  0  0  0  0  0  0  0
    2.6945  -28.2528   -8.9975 C   0  0  0  0  0  0  0  0  0  0  0  0
    4.0075  -29.9299   -7.6385 C   0  0  0  0  0  0  0  0  0  0  0  0
    3.9968  -27.5790   -9.4269 C   0  0  0  0  0  0  0  0  0  0  0  0
    5.3113  -29.2586   -8.0667 C   0  0  0  0  0  0  0  0  0  0  0  0
    7.0592  -27.7118   -9.9752 C   0  0  0  0  0  0  0  0  0  0  0  0
    8.1071  -26.6538  -10.2812 C   0  0  2  0  0  0  0  0  0  0  0  0
    2.8706  -29.7384   -8.6522 C   0  0  0  0  0  0  0  0  0  0  0  0
    5.1061  -27.7767   -8.3908 C   0  0  0  0  0  0  0  0  0  0  0  0
   10.7557  -26.5535  -13.7087 C   0  0  0  0  0  0  0  0  0  0  0  0
    3.0830  -30.5893   -9.9075 C   0  0  0  0  0  0  0  0  0  0  0  0
   13.0080  -27.3235  -13.2550 N   0  0  0  0  0  0  0  0  0  0  0  0
   11.6153  -26.8010  -11.3901 N   0  0  0  0  0  0  0  0  0  0  0  0
    6.3396  -27.1789   -8.8447 N   0  0  0  0  0  0  0  0  0  0  0  0
   10.3779  -26.3627  -10.9654 N   0  0  0  0  0  0  0  0  0  0  0  0
   12.3629  -27.0131   -9.1791 O   0  0  0  0  0  0  0  0  0  0  0  0
    6.6747  -25.5324   -7.2027 O   0  0  0  0  0  0  0  0  0  0  0  0
    9.4875  -28.5101  -10.8479 O   0  0  0  0  0  0  0  0  0  0  0  0
   15.5052  -28.1788  -12.7735 S   0  0  0  0  0  0  0  0  0  0  0  0
   15.1212  -27.9693   -9.1886 H   0  0  0  0  0  0  0  0  0  0  0  0
   16.9966  -28.6558  -10.8991 H   0  0  0  0  0  0  0  0  0  0  0  0
    8.3754  -24.8165   -9.1485 H   0  0  0  0  0  0  0  0  0  0  0  0
    9.1475  -26.2403   -8.3836 H   0  0  0  0  0  0  0  0  0  0  0  0
    2.2849  -27.7167   -8.1249 H   0  0  0  0  0  0  0  0  0  0  0  0
    1.9430  -28.1414   -9.7981 H   0  0  0  0  0  0  0  0  0  0  0  0
    4.1877  -31.0066   -7.4801 H   0  0  0  0  0  0  0  0  0  0  0  0
    3.7017  -29.5284   -6.6584 H   0  0  0  0  0  0  0  0  0  0  0  0
    4.3096  -27.9596  -10.4024 H   0  0  0  0  0  0  0  0  0  0  0  0
    3.8164  -26.5067   -9.5495 H   0  0  0  0  0  0  0  0  0  0  0  0
    6.0338  -29.3418   -7.2506 H   0  0  0  0  0  0  0  0  0  0  0  0
    5.7384  -29.7845   -8.9229 H   0  0  0  0  0  0  0  0  0  0  0  0
    6.3502  -27.8236  -10.8033 H   0  0  0  0  0  0  0  0  0  0  0  0
    7.4869  -28.6879   -9.7224 H   0  0  0  0  0  0  0  0  0  0  0  0
    7.7743  -25.9877  -11.0854 H   0  0  0  0  0  0  0  0  0  0  0  0
    1.9312  -30.0845   -8.1718 H   0  0  0  0  0  0  0  0  0  0  0  0
    4.8383  -27.2424   -7.4726 H   0  0  0  0  0  0  0  0  0  0  0  0
   10.1585  -27.4363  -13.9101 H   0  0  0  0  0  0  0  0  0  0  0  0
   11.1837  -26.1759  -14.6316 H   0  0  0  0  0  0  0  0  0  0  0  0
   10.1408  -25.7850  -13.2520 H   0  0  0  0  0  0  0  0  0  0  0  0
    3.9976  -30.2814  -10.4113 H   0  0  0  0  0  0  0  0  0  0  0  0
    2.2415  -30.4616  -10.5862 H   0  0  0  0  0  0  0  0  0  0  0  0
    3.1634  -31.6394   -9.6319 H   0  0  0  0  0  0  0  0  0  0  0  0
   10.2025  -25.3728  -10.8245 H   0  0  0  0  0  0  0  0  0  0  0  0
  1  2  2  0  0  0  0
  1  3  1  0  0  0  0
  2 27  1  0  0  0  0
  3  4  2  0  0  0  0
  3  5  1  0  0  0  0
  4 20  1  0  0  0  0
  4 27  1  0  0  0  0
  5 21  1  0  0  0  0
  5 24  2  0  0  0  0
  6  9  1  0  0  0  0
  6 22  1  0  0  0  0
  6 25  2  0  0  0  0
  7 18  1  0  0  0  0
  7 20  2  0  0  0  0
  7 21  1  0  0  0  0
  8 15  1  0  0  0  0
  8 23  1  0  0  0  0
  8 26  2  0  0  0  0
  9 15  1  0  0  0  0
 10 12  1  0  0  0  0
 10 16  1  0  0  0  0
 11 13  1  0  0  0  0
 11 16  1  0  0  0  0
 12 17  1  0  0  0  0
 13 17  1  0  0  0  0
 14 15  1  0  0  0  0
 14 22  1  0  0  0  0
 16 19  1  0  0  0  0
 17 22  1  0  0  0  0
 21 23  1  0  0  0  0
  1 28  1  0  0  0  0
  2 29  1  0  0  0  0
  9 30  1  0  0  0  0
  9 31  1  0  0  0  0
 10 32  1  0  0  0  0
 10 33  1  0  0  0  0
 11 34  1  0  0  0  0
 11 35  1  0  0  0  0
 12 36  1  0  0  0  0
 12 37  1  0  0  0  0
 13 38  1  0  0  0  0
 13 39  1  0  0  0  0
 14 40  1  0  0  0  0
 14 41  1  0  0  0  0
 15 42  1  0  0  0  0
 16 43  1  0  0  0  0
 17 44  1  0  0  0  0
 18 45  1  0  0  0  0
 18 46  1  0  0  0  0
 18 47  1  0  0  0  0
 19 48  1  0  0  0  0
 19 49  1  0  0  0  0
 19 50  1  0  0  0  0
 23 51  1  0  0  0  0
M  END
> <Hybrid2>
-2.7456612586975098

> <Hybrid2>
-2.745661

$$$$
C66756453
  -OEChem-02152218493D

 51 54  0     1  0  0  0  0  0999 V2000
   13.8780  -24.7119  -12.3909 C   0  0  0  0  0  0  0  0  0  0  0  0
   15.0051  -25.5035  -12.3740 C   0  0  0  0  0  0  0  0  0  0  0  0
   12.7312  -25.4153  -11.9252 C   0  0  0  0  0  0  0  0  0  0  0  0
   13.0206  -26.7194  -11.5682 C   0  0  0  0  0  0  0  0  0  0  0  0
   11.3641  -24.9370  -11.7919 C   0  0  0  0  0  0  0  0  0  0  0  0
    6.3440  -25.3343   -7.7979 C   0  0  0  0  0  0  0  0  0  0  0  0
   10.9241  -27.2291  -10.9652 C   0  0  0  0  0  0  0  0  0  0  0  0
    8.7766  -25.0510   -9.9197 C   0  0  0  0  0  0  0  0  0  0  0  0
    6.9004  -24.1494   -8.5533 C   0  0  0  0  0  0  0  0  0  0  0  0
    3.6324  -29.2031   -8.9718 C   0  0  0  0  0  0  0  0  0  0  0  0
    5.9117  -30.1429   -8.4194 C   0  0  0  0  0  0  0  0  0  0  0  0
    4.2574  -27.8320   -9.2243 C   0  0  0  0  0  0  0  0  0  0  0  0
    6.5394  -28.7731   -8.6719 C   0  0  0  0  0  0  0  0  0  0  0  0
    6.4773  -25.9824  -10.0705 C   0  0  0  0  0  0  0  0  0  0  0  0
    7.3123  -24.7252   -9.9060 C   0  0  2  0  0  0  0  0  0  0  0  0
    4.6110  -30.3629   -9.2047 C   0  0  0  0  0  0  0  0  0  0  0  0
    5.5443  -27.6380   -8.4184 C   0  0  0  0  0  0  0  0  0  0  0  0
    9.8778  -28.1809  -10.4402 C   0  0  0  0  0  0  0  0  0  0  0  0
    4.8811  -30.5840  -10.6956 C   0  0  0  0  0  0  0  0  0  0  0  0
   12.1516  -27.6501  -11.0880 N   0  0  0  0  0  0  0  0  0  0  0  0
   10.5080  -25.9335  -11.2933 N   0  0  0  0  0  0  0  0  0  0  0  0
    6.1440  -26.3587   -8.7162 N   0  0  0  0  0  0  0  0  0  0  0  0
    9.1837  -25.5829  -11.1283 N   0  0  0  0  0  0  0  0  0  0  0  0
   11.0350  -23.7931  -12.0894 O   0  0  0  0  0  0  0  0  0  0  0  0
    6.0977  -25.3359   -6.6005 O   0  0  0  0  0  0  0  0  0  0  0  0
    9.4965  -24.8264   -8.9494 O   0  0  0  0  0  0  0  0  0  0  0  0
   14.6755  -27.0817  -11.7993 S   0  0  0  0  0  0  0  0  0  0  0  0
   13.8827  -23.6814  -12.7223 H   0  0  0  0  0  0  0  0  0  0  0  0
   16.0074  -25.2297  -12.6718 H   0  0  0  0  0  0  0  0  0  0  0  0
    6.0974  -23.4139   -8.6684 H   0  0  0  0  0  0  0  0  0  0  0  0
    7.7328  -23.7065   -7.9990 H   0  0  0  0  0  0  0  0  0  0  0  0
    3.2560  -29.2395   -7.9356 H   0  0  0  0  0  0  0  0  0  0  0  0
    2.7459  -29.3262   -9.6175 H   0  0  0  0  0  0  0  0  0  0  0  0
    6.6402  -30.9300   -8.6774 H   0  0  0  0  0  0  0  0  0  0  0  0
    5.7166  -30.2552   -7.3402 H   0  0  0  0  0  0  0  0  0  0  0  0
    4.4490  -27.7004  -10.2922 H   0  0  0  0  0  0  0  0  0  0  0  0
    3.5403  -27.0577   -8.9345 H   0  0  0  0  0  0  0  0  0  0  0  0
    7.3920  -28.6482   -7.9992 H   0  0  0  0  0  0  0  0  0  0  0  0
    6.9294  -28.7232   -9.6904 H   0  0  0  0  0  0  0  0  0  0  0  0
    5.5417  -25.7761  -10.6009 H   0  0  0  0  0  0  0  0  0  0  0  0
    7.0109  -26.7997  -10.5656 H   0  0  0  0  0  0  0  0  0  0  0  0
    7.1342  -24.0130  -10.7151 H   0  0  0  0  0  0  0  0  0  0  0  0
    4.1352  -31.2867   -8.8131 H   0  0  0  0  0  0  0  0  0  0  0  0
    5.2980  -27.6085   -7.3513 H   0  0  0  0  0  0  0  0  0  0  0  0
    9.8334  -28.0973   -9.3597 H   0  0  0  0  0  0  0  0  0  0  0  0
   10.1454  -29.1936  -10.7238 H   0  0  0  0  0  0  0  0  0  0  0  0
    8.9164  -27.9242  -10.8727 H   0  0  0  0  0  0  0  0  0  0  0  0
    5.3495  -29.6980  -11.1209 H   0  0  0  0  0  0  0  0  0  0  0  0
    3.9443  -30.7767  -11.2155 H   0  0  0  0  0  0  0  0  0  0  0  0
    5.5448  -31.4368  -10.8276 H   0  0  0  0  0  0  0  0  0  0  0  0
    8.5183  -25.7138  -11.8837 H   0  0  0  0  0  0  0  0  0  0  0  0
  1  2  2  0  0  0  0
  1  3  1  0  0  0  0
  2 27  1  0  0  0  0
  3  4  2  0  0  0  0
  3  5  1  0  0  0  0
  4 20  1  0  0  0  0
  4 27  1  0  0  0  0
  5 21  1  0  0  0  0
  5 24  2  0  0  0  0
  6  9  1  0  0  0  0
  6 22  1  0  0  0  0
  6 25  2  0  0  0  0
  7 18  1  0  0  0  0
  7 20  2  0  0  0  0
  7 21  1  0  0  0  0
  8 15  1  0  0  0  0
  8 23  1  0  0  0  0
  8 26  2  0  0  0  0
  9 15  1  0  0  0  0
 10 12  1  0  0  0  0
 10 16  1  0  0  0  0
 11 13  1  0  0  0  0
 11 16  1  0  0  0  0
 12 17  1  0  0  0  0
 13 17  1  0  0  0  0
 14 15  1  0  0  0  0
 14 22  1  0  0  0  0
 16 19  1  0  0  0  0
 17 22  1  0  0  0  0
 21 23  1  0  0  0  0
  1 28  1  0  0  0  0
  2 29  1  0  0  0  0
  9 30  1  0  0  0  0
  9 31  1  0  0  0  0
 10 32  1  0  0  0  0
 10 33  1  0  0  0  0
 11 34  1  0  0  0  0
 11 35  1  0  0  0  0
 12 36  1  0  0  0  0
 12 37  1  0  0  0  0
 13 38  1  0  0  0  0
 13 39  1  0  0  0  0
 14 40  1  0  0  0  0
 14 41  1  0  0  0  0
 15 42  1  0  0  0  0
 16 43  1  0  0  0  0
 17 44  1  0  0  0  0
 18 45  1  0  0  0  0
 18 46  1  0  0  0  0
 18 47  1  0  0  0  0
 19 48  1  0  0  0  0
 19 49  1  0  0  0  0
 19 50  1  0  0  0  0
 23 51  1  0  0  0  0
M  END
> <Hybrid2>
-2.7456612586975098

> <Hybrid2>
-2.665532

$$$$
C66756454
  -OEChem-02152218493D

 51 54  0     1  0  0  0  0  0999 V2000
   14.7125  -27.9380  -10.1709 C   0  0  0  0  0  0  0  0  0  0  0  0
   15.6014  -27.7132  -11.1988 C   0  0  0  0  0  0  0  0  0  0  0  0
   13.4262  -27.3991  -10.4572 C   0  0  0  0  0  0  0  0  0  0  0  0
   13.3758  -26.7815  -11.6932 C   0  0  0  0  0  0  0  0  0  0  0  0
   12.2264  -27.4264   -9.6355 C   0  0  0  0  0  0  0  0  0  0  0  0
    5.6011  -26.7152   -9.2084 C   0  0  0  0  0  0  0  0  0  0  0  0
   11.2207  -26.1912  -11.5312 C   0  0  0  0  0  0  0  0  0  0  0  0
    9.0525  -27.7845   -9.7399 C   0  0  0  0  0  0  0  0  0  0  0  0
    7.0571  -26.3458   -9.3557 C   0  0  0  0  0  0  0  0  0  0  0  0
    2.9727  -30.7117  -10.1195 C   0  0  0  0  0  0  0  0  0  0  0  0
    2.9837  -30.4938   -7.6024 C   0  0  0  0  0  0  0  0  0  0  0  0
    4.2226  -29.8369  -10.2021 C   0  0  0  0  0  0  0  0  0  0  0  0
    4.2339  -29.6193   -7.6819 C   0  0  0  0  0  0  0  0  0  0  0  0
    6.8308  -28.7333   -9.1537 C   0  0  0  0  0  0  0  0  0  0  0  0
    7.8036  -27.5969   -8.9066 C   0  0  1  0  0  0  0  0  0  0  0  0
    2.8504  -31.4625   -8.7860 C   0  0  0  0  0  0  0  0  0  0  0  0
    4.3205  -28.8741   -9.0161 C   0  0  0  0  0  0  0  0  0  0  0  0
    9.9683  -25.5423  -12.0666 C   0  0  0  0  0  0  0  0  0  0  0  0
    3.8560  -32.6134   -8.6907 C   0  0  0  0  0  0  0  0  0  0  0  0
   12.3004  -26.1707  -12.2612 N   0  0  0  0  0  0  0  0  0  0  0  0
   11.1468  -26.7843  -10.2654 N   0  0  0  0  0  0  0  0  0  0  0  0
    5.5363  -28.0985   -9.0885 N   0  0  0  0  0  0  0  0  0  0  0  0
    9.9561  -26.7533   -9.5690 N   0  0  0  0  0  0  0  0  0  0  0  0
   12.1981  -27.9562   -8.5293 O   0  0  0  0  0  0  0  0  0  0  0  0
    4.6776  -25.9150   -9.2352 O   0  0  0  0  0  0  0  0  0  0  0  0
    9.2100  -28.7734  -10.4523 O   0  0  0  0  0  0  0  0  0  0  0  0
   14.8832  -26.8584  -12.4963 S   0  0  0  0  0  0  0  0  0  0  0  0
   14.9782  -28.4627   -9.2621 H   0  0  0  0  0  0  0  0  0  0  0  0
   16.6392  -28.0107  -11.2498 H   0  0  0  0  0  0  0  0  0  0  0  0
    7.2714  -26.0615  -10.3894 H   0  0  0  0  0  0  0  0  0  0  0  0
    7.2636  -25.5041   -8.6870 H   0  0  0  0  0  0  0  0  0  0  0  0
    2.0822  -30.0786  -10.2703 H   0  0  0  0  0  0  0  0  0  0  0  0
    2.9738  -31.4321  -10.9557 H   0  0  0  0  0  0  0  0  0  0  0  0
    2.9962  -31.0611   -6.6564 H   0  0  0  0  0  0  0  0  0  0  0  0
    2.0940  -29.8448   -7.5526 H   0  0  0  0  0  0  0  0  0  0  0  0
    5.1146  -30.4656  -10.2616 H   0  0  0  0  0  0  0  0  0  0  0  0
    4.1854  -29.2536  -11.1273 H   0  0  0  0  0  0  0  0  0  0  0  0
    4.2013  -28.8855   -6.8724 H   0  0  0  0  0  0  0  0  0  0  0  0
    5.1261  -30.2281   -7.5221 H   0  0  0  0  0  0  0  0  0  0  0  0
    6.9623  -29.2168  -10.1266 H   0  0  0  0  0  0  0  0  0  0  0  0
    6.8777  -29.4837   -8.3577 H   0  0  0  0  0  0  0  0  0  0  0  0
    8.1134  -27.5369   -7.8719 H   0  0  0  0  0  0  0  0  0  0  0  0
    1.8333  -31.9062   -8.7431 H   0  0  0  0  0  0  0  0  0  0  0  0
    3.5022  -28.1481   -9.0753 H   0  0  0  0  0  0  0  0  0  0  0  0
    9.3990  -26.2781  -12.6244 H   0  0  0  0  0  0  0  0  0  0  0  0
   10.2456  -24.7176  -12.7150 H   0  0  0  0  0  0  0  0  0  0  0  0
    9.3795  -25.1691  -11.2352 H   0  0  0  0  0  0  0  0  0  0  0  0
    4.8706  -32.2207   -8.7291 H   0  0  0  0  0  0  0  0  0  0  0  0
    3.7081  -33.3019   -9.5209 H   0  0  0  0  0  0  0  0  0  0  0  0
    3.7157  -33.1490   -7.7533 H   0  0  0  0  0  0  0  0  0  0  0  0
    9.7471  -25.9842   -8.9402 H   0  0  0  0  0  0  0  0  0  0  0  0
  1  2  2  0  0  0  0
  1  3  1  0  0  0  0
  2 27  1  0  0  0  0
  3  4  2  0  0  0  0
  3  5  1  0  0  0  0
  4 20  1  0  0  0  0
  4 27  1  0  0  0  0
  5 21  1  0  0  0  0
  5 24  2  0  0  0  0
  6  9  1  0  0  0  0
  6 22  1  0  0  0  0
  6 25  2  0  0  0  0
  7 18  1  0  0  0  0
  7 20  2  0  0  0  0
  7 21  1  0  0  0  0
  8 15  1  0  0  0  0
  8 23  1  0  0  0  0
  8 26  2  0  0  0  0
  9 15  1  0  0  0  0
 10 12  1  0  0  0  0
 10 16  1  0  0  0  0
 11 13  1  0  0  0  0
 11 16  1  0  0  0  0
 12 17  1  0  0  0  0
 13 17  1  0  0  0  0
 14 15  1  0  0  0  0
 14 22  1  0  0  0  0
 16 19  1  0  0  0  0
 17 22  1  0  0  0  0
 21 23  1  0  0  0  0
  1 28  1  0  0  0  0
  2 29  1  0  0  0  0
  9 30  1  0  0  0  0
  9 31  1  0  0  0  0
 10 32  1  0  0  0  0
 10 33  1  0  0  0  0
 11 34  1  0  0  0  0
 11 35  1  0  0  0  0
 12 36  1  0  0  0  0
 12 37  1  0  0  0  0
 13 38  1  0  0  0  0
 13 39  1  0  0  0  0
 14 40  1  0  0  0  0
 14 41  1  0  0  0  0
 15 42  1  0  0  0  0
 16 43  1  0  0  0  0
 17 44  1  0  0  0  0
 18 45  1  0  0  0  0
 18 46  1  0  0  0  0
 18 47  1  0  0  0  0
 19 48  1  0  0  0  0
 19 49  1  0  0  0  0
 19 50  1  0  0  0  0
 23 51  1  0  0  0  0
M  END
> <Hybrid2>
-3.8045315742492676

> <Hybrid2>
-3.804532

$$$$
C66756454
  -OEChem-02152218493D

 51 54  0     1  0  0  0  0  0999 V2000
   13.7184  -27.8618  -10.2426 C   0  0  0  0  0  0  0  0  0  0  0  0
   14.5671  -27.7576  -11.3224 C   0  0  0  0  0  0  0  0  0  0  0  0
   12.5038  -27.1500  -10.4543 C   0  0  0  0  0  0  0  0  0  0  0  0
   12.4653  -26.5267  -11.6880 C   0  0  0  0  0  0  0  0  0  0  0  0
   11.3626  -27.0150   -9.5628 C   0  0  0  0  0  0  0  0  0  0  0  0
    5.0268  -26.7585   -9.9055 C   0  0  0  0  0  0  0  0  0  0  0  0
   10.4254  -25.6462  -11.4010 C   0  0  0  0  0  0  0  0  0  0  0  0
    8.1690  -26.9326   -9.4768 C   0  0  0  0  0  0  0  0  0  0  0  0
    6.0014  -25.7427   -9.3541 C   0  0  0  0  0  0  0  0  0  0  0  0
    4.5153  -31.6007   -9.9808 C   0  0  0  0  0  0  0  0  0  0  0  0
    2.9477  -30.8039   -8.1666 C   0  0  0  0  0  0  0  0  0  0  0  0
    5.3113  -30.3017   -9.8655 C   0  0  0  0  0  0  0  0  0  0  0  0
    3.7422  -29.5042   -8.0487 C   0  0  0  0  0  0  0  0  0  0  0  0
    6.2574  -27.8424   -8.1984 C   0  0  0  0  0  0  0  0  0  0  0  0
    7.0039  -26.5763   -8.5673 C   0  0  1  0  0  0  0  0  0  0  0  0
    3.7898  -31.9795   -8.6818 C   0  0  0  0  0  0  0  0  0  0  0  0
    4.4421  -29.1465   -9.3621 C   0  0  0  0  0  0  0  0  0  0  0  0
    9.2446  -24.8292  -11.8640 C   0  0  0  0  0  0  0  0  0  0  0  0
    4.7659  -32.4857   -7.6161 C   0  0  0  0  0  0  0  0  0  0  0  0
   11.4524  -25.7718  -12.1939 N   0  0  0  0  0  0  0  0  0  0  0  0
   10.3461  -26.2282  -10.1303 N   0  0  0  0  0  0  0  0  0  0  0  0
    5.2292  -27.9456   -9.2094 N   0  0  0  0  0  0  0  0  0  0  0  0
    9.2145  -26.0362   -9.3645 N   0  0  0  0  0  0  0  0  0  0  0  0
   11.3275  -27.5400   -8.4544 O   0  0  0  0  0  0  0  0  0  0  0  0
    4.2016  -26.5248  -10.7763 O   0  0  0  0  0  0  0  0  0  0  0  0
    8.1464  -27.9311  -10.1928 O   0  0  0  0  0  0  0  0  0  0  0  0
   13.8975  -26.8073  -12.5788 S   0  0  0  0  0  0  0  0  0  0  0  0
   13.9629  -28.4214   -9.3488 H   0  0  0  0  0  0  0  0  0  0  0  0
   15.5493  -28.1949  -11.4336 H   0  0  0  0  0  0  0  0  0  0  0  0
    6.4553  -25.1755  -10.1719 H   0  0  0  0  0  0  0  0  0  0  0  0
    5.4479  -25.0660   -8.6947 H   0  0  0  0  0  0  0  0  0  0  0  0
    3.7814  -31.4994  -10.7979 H   0  0  0  0  0  0  0  0  0  0  0  0
    5.1911  -32.4188  -10.2841 H   0  0  0  0  0  0  0  0  0  0  0  0
    2.5167  -31.0572   -7.1833 H   0  0  0  0  0  0  0  0  0  0  0  0
    2.0892  -30.6403   -8.8386 H   0  0  0  0  0  0  0  0  0  0  0  0
    6.1726  -30.4491   -9.2091 H   0  0  0  0  0  0  0  0  0  0  0  0
    5.7071  -30.0408  -10.8518 H   0  0  0  0  0  0  0  0  0  0  0  0
    3.0553  -28.6953   -7.7863 H   0  0  0  0  0  0  0  0  0  0  0  0
    4.4661  -29.5817   -7.2351 H   0  0  0  0  0  0  0  0  0  0  0  0
    6.8844  -28.7394   -8.2110 H   0  0  0  0  0  0  0  0  0  0  0  0
    5.7626  -27.7503   -7.2258 H   0  0  0  0  0  0  0  0  0  0  0  0
    7.4039  -26.0595   -7.7206 H   0  0  0  0  0  0  0  0  0  0  0  0
    3.0942  -32.8125   -8.9171 H   0  0  0  0  0  0  0  0  0  0  0  0
    3.6859  -28.9107  -10.1190 H   0  0  0  0  0  0  0  0  0  0  0  0
    8.5474  -25.4776  -12.3837 H   0  0  0  0  0  0  0  0  0  0  0  0
    9.5936  -24.0481  -12.5314 H   0  0  0  0  0  0  0  0  0  0  0  0
    8.7632  -24.3816  -11.0008 H   0  0  0  0  0  0  0  0  0  0  0  0
    5.4690  -31.6966   -7.3552 H   0  0  0  0  0  0  0  0  0  0  0  0
    5.3174  -33.3429   -7.9985 H   0  0  0  0  0  0  0  0  0  0  0  0
    4.2166  -32.7835   -6.7246 H   0  0  0  0  0  0  0  0  0  0  0  0
    9.1509  -25.2480   -8.7280 H   0  0  0  0  0  0  0  0  0  0  0  0
  1  2  2  0  0  0  0
  1  3  1  0  0  0  0
  2 27  1  0  0  0  0
  3  4  2  0  0  0  0
  3  5  1  0  0  0  0
  4 20  1  0  0  0  0
  4 27  1  0  0  0  0
  5 21  1  0  0  0  0
  5 24  2  0  0  0  0
  6  9  1  0  0  0  0
  6 22  1  0  0  0  0
  6 25  2  0  0  0  0
  7 18  1  0  0  0  0
  7 20  2  0  0  0  0
  7 21  1  0  0  0  0
  8 15  1  0  0  0  0
  8 23  1  0  0  0  0
  8 26  2  0  0  0  0
  9 15  1  0  0  0  0
 10 12  1  0  0  0  0
 10 16  1  0  0  0  0
 11 13  1  0  0  0  0
 11 16  1  0  0  0  0
 12 17  1  0  0  0  0
 13 17  1  0  0  0  0
 14 15  1  0  0  0  0
 14 22  1  0  0  0  0
 16 19  1  0  0  0  0
 17 22  1  0  0  0  0
 21 23  1  0  0  0  0
  1 28  1  0  0  0  0
  2 29  1  0  0  0  0
  9 30  1  0  0  0  0
  9 31  1  0  0  0  0
 10 32  1  0  0  0  0
 10 33  1  0  0  0  0
 11 34  1  0  0  0  0
 11 35  1  0  0  0  0
 12 36  1  0  0  0  0
 12 37  1  0  0  0  0
 13 38  1  0  0  0  0
 13 39  1  0  0  0  0
 14 40  1  0  0  0  0
 14 41  1  0  0  0  0
 15 42  1  0  0  0  0
 16 43  1  0  0  0  0
 17 44  1  0  0  0  0
 18 45  1  0  0  0  0
 18 46  1  0  0  0  0
 18 47  1  0  0  0  0
 19 48  1  0  0  0  0
 19 49  1  0  0  0  0
 19 50  1  0  0  0  0
 23 51  1  0  0  0  0
M  END
> <Hybrid2>
-3.8045315742492676

> <Hybrid2>
-3.394597

$$$$
C66838582
  -OEChem-02152218493D

 59 62  0     1  0  0  0  0  0999 V2000
   11.5508  -24.1130  -11.0946 C   0  0  0  0  0  0  0  0  0  0  0  0
    6.1161  -25.8127   -9.4956 C   0  0  0  0  0  0  0  0  0  0  0  0
    9.2468  -25.3247   -9.7152 C   0  0  0  0  0  0  0  0  0  0  0  0
    6.9678  -24.6610   -9.0116 C   0  0  0  0  0  0  0  0  0  0  0  0
    6.5666  -30.6200  -10.1287 C   0  0  0  0  0  0  0  0  0  0  0  0
    5.3094  -30.3601   -7.9525 C   0  0  0  0  0  0  0  0  0  0  0  0
    7.0961  -29.1930   -9.9948 C   0  0  0  0  0  0  0  0  0  0  0  0
    5.8379  -28.9332   -7.8157 C   0  0  0  0  0  0  0  0  0  0  0  0
   13.0020  -25.3179   -9.4886 C   0  0  0  0  0  0  0  0  0  0  0  0
   11.5723  -26.5894  -11.1518 C   0  0  0  0  0  0  0  0  0  0  0  0
   14.2237  -25.5233  -10.3899 C   0  0  0  0  0  0  0  0  0  0  0  0
   12.8007  -26.7912  -12.0451 C   0  0  0  0  0  0  0  0  0  0  0  0
    7.8804  -26.7488   -8.2249 C   0  0  0  0  0  0  0  0  0  0  0  0
   15.4250  -28.5246  -10.6178 C   0  0  0  0  0  0  0  0  0  0  0  0
   15.7300  -28.1566  -12.0429 C   0  0  0  0  0  0  0  0  0  0  0  0
    8.2628  -25.3204   -8.5562 C   0  0  1  0  0  0  0  0  0  0  0  0
    6.2331  -31.2676   -8.7772 C   0  0  0  0  0  0  0  0  0  0  0  0
    6.1480  -28.3104   -9.1792 C   0  0  0  0  0  0  0  0  0  0  0  0
   11.6713  -25.3313  -10.2668 C   0  0  0  0  0  0  0  0  0  0  0  0
   14.1058  -26.7862  -11.2460 C   0  0  0  0  0  0  0  0  0  0  0  0
    7.4994  -31.6405   -8.0012 C   0  0  0  0  0  0  0  0  0  0  0  0
   11.4561  -23.1565  -11.7444 N   0  0  0  0  0  0  0  0  0  0  0  0
    6.6965  -26.9841   -9.0206 N   0  0  0  0  0  0  0  0  0  0  0  0
   10.5683  -25.3255   -9.3232 N   0  0  0  0  0  0  0  0  0  0  0  0
    5.0905  -25.6887  -10.1488 O   0  0  0  0  0  0  0  0  0  0  0  0
    8.8251  -25.3285  -10.8658 O   0  0  0  0  0  0  0  0  0  0  0  0
   14.1382  -27.9492  -10.3984 O   0  0  0  0  0  0  0  0  0  0  0  0
   15.2190  -26.8294  -12.1553 O   0  0  0  0  0  0  0  0  0  0  0  0
    7.1129  -23.9369   -9.8187 H   0  0  0  0  0  0  0  0  0  0  0  0
    6.4471  -24.1844   -8.1742 H   0  0  0  0  0  0  0  0  0  0  0  0
    5.6661  -30.6093  -10.7656 H   0  0  0  0  0  0  0  0  0  0  0  0
    7.3072  -31.2366  -10.6665 H   0  0  0  0  0  0  0  0  0  0  0  0
    5.1634  -30.7917   -6.9479 H   0  0  0  0  0  0  0  0  0  0  0  0
    4.3095  -30.3300   -8.4156 H   0  0  0  0  0  0  0  0  0  0  0  0
    8.0921  -29.2055   -9.5452 H   0  0  0  0  0  0  0  0  0  0  0  0
    7.2064  -28.7616  -10.9944 H   0  0  0  0  0  0  0  0  0  0  0  0
    5.0796  -28.3241   -7.3168 H   0  0  0  0  0  0  0  0  0  0  0  0
    6.7234  -28.9226   -7.1771 H   0  0  0  0  0  0  0  0  0  0  0  0
   12.9926  -26.1158   -8.7335 H   0  0  0  0  0  0  0  0  0  0  0  0
   13.1226  -24.3726   -8.9431 H   0  0  0  0  0  0  0  0  0  0  0  0
   10.6783  -26.5465  -11.7881 H   0  0  0  0  0  0  0  0  0  0  0  0
   11.4600  -27.4772  -10.5145 H   0  0  0  0  0  0  0  0  0  0  0  0
   14.3693  -24.6477  -11.0351 H   0  0  0  0  0  0  0  0  0  0  0  0
   15.1196  -25.5839   -9.7591 H   0  0  0  0  0  0  0  0  0  0  0  0
   12.6945  -27.7452  -12.5770 H   0  0  0  0  0  0  0  0  0  0  0  0
   12.8359  -26.0161  -12.8210 H   0  0  0  0  0  0  0  0  0  0  0  0
    8.6547  -27.4777   -8.4847 H   0  0  0  0  0  0  0  0  0  0  0  0
    7.6033  -26.8635   -7.1714 H   0  0  0  0  0  0  0  0  0  0  0  0
   15.4021  -29.6029  -10.4429 H   0  0  0  0  0  0  0  0  0  0  0  0
   16.1300  -28.0590   -9.9208 H   0  0  0  0  0  0  0  0  0  0  0  0
   16.7964  -28.1826  -12.2795 H   0  0  0  0  0  0  0  0  0  0  0  0
   15.1860  -28.7927  -12.7495 H   0  0  0  0  0  0  0  0  0  0  0  0
    8.7266  -24.8079   -7.7394 H   0  0  0  0  0  0  0  0  0  0  0  0
    5.6812  -32.2089   -8.9837 H   0  0  0  0  0  0  0  0  0  0  0  0
    5.2129  -28.1796   -9.7349 H   0  0  0  0  0  0  0  0  0  0  0  0
    8.0726  -30.7425   -7.7773 H   0  0  0  0  0  0  0  0  0  0  0  0
    8.1117  -32.3154   -8.5969 H   0  0  0  0  0  0  0  0  0  0  0  0
    7.2289  -32.1331   -7.0687 H   0  0  0  0  0  0  0  0  0  0  0  0
   10.7791  -25.3220   -8.3326 H   0  0  0  0  0  0  0  0  0  0  0  0
  1 19  1  0  0  0  0
  1 22  3  0  0  0  0
  2  4  1  0  0  0  0
  2 23  1  0  0  0  0
  2 25  2  0  0  0  0
  3 16  1  0  0  0  0
  3 24  1  0  0  0  0
  3 26  2  0  0  0  0
  4 16  1  0  0  0  0
  5  7  1  0  0  0  0
  5 17  1  0  0  0  0
  6  8  1  0  0  0  0
  6 17  1  0  0  0  0
  7 18  1  0  0  0  0
  8 18  1  0  0  0  0
  9 11  1  0  0  0  0
  9 19  1  0  0  0  0
 10 12  1  0  0  0  0
 10 19  1  0  0  0  0
 11 20  1  0  0  0  0
 12 20  1  0  0  0  0
 13 16  1  0  0  0  0
 13 23  1  0  0  0  0
 14 15  1  0  0  0  0
 14 27  1  0  0  0  0
 15 28  1  0  0  0  0
 17 21  1  0  0  0  0
 18 23  1  0  0  0  0
 19 24  1  0  0  0  0
 20 27  1  0  0  0  0
 20 28  1  0  0  0  0
  4 29  1  0  0  0  0
  4 30  1  0  0  0  0
  5 31  1  0  0  0  0
  5 32  1  0  0  0  0
  6 33  1  0  0  0  0
  6 34  1  0  0  0  0
  7 35  1  0  0  0  0
  7 36  1  0  0  0  0
  8 37  1  0  0  0  0
  8 38  1  0  0  0  0
  9 39  1  0  0  0  0
  9 40  1  0  0  0  0
 10 41  1  0  0  0  0
 10 42  1  0  0  0  0
 11 43  1  0  0  0  0
 11 44  1  0  0  0  0
 12 45  1  0  0  0  0
 12 46  1  0  0  0  0
 13 47  1  0  0  0  0
 13 48  1  0  0  0  0
 14 49  1  0  0  0  0
 14 50  1  0  0  0  0
 15 51  1  0  0  0  0
 15 52  1  0  0  0  0
 16 53  1  0  0  0  0
 17 54  1  0  0  0  0
 18 55  1  0  0  0  0
 21 56  1  0  0  0  0
 21 57  1  0  0  0  0
 21 58  1  0  0  0  0
 24 59  1  0  0  0  0
M  END
> <Hybrid2>
-3.414538860321045

> <Hybrid2>
-3.414539

$$$$
C66838582
  -OEChem-02152218493D

 59 62  0     1  0  0  0  0  0999 V2000
   11.6917  -24.3993  -11.2353 C   0  0  0  0  0  0  0  0  0  0  0  0
    6.4153  -26.0658   -9.1463 C   0  0  0  0  0  0  0  0  0  0  0  0
    9.5100  -25.5127   -9.5982 C   0  0  0  0  0  0  0  0  0  0  0  0
    7.2491  -24.8411   -8.8453 C   0  0  0  0  0  0  0  0  0  0  0  0
    4.6504  -29.9871   -7.7778 C   0  0  0  0  0  0  0  0  0  0  0  0
    5.7984  -30.4578   -9.9787 C   0  0  0  0  0  0  0  0  0  0  0  0
    5.2402  -28.5777   -7.7700 C   0  0  0  0  0  0  0  0  0  0  0  0
    6.3890  -29.0487   -9.9738 C   0  0  0  0  0  0  0  0  0  0  0  0
   13.2692  -25.3673   -9.5887 C   0  0  0  0  0  0  0  0  0  0  0  0
   11.8000  -26.8641  -11.0128 C   0  0  0  0  0  0  0  0  0  0  0  0
   14.4478  -25.6383  -10.5293 C   0  0  0  0  0  0  0  0  0  0  0  0
   12.9855  -27.1305  -11.9462 C   0  0  0  0  0  0  0  0  0  0  0  0
    8.2776  -26.7961   -7.8806 C   0  0  0  0  0  0  0  0  0  0  0  0
   15.7434  -28.6085  -10.4839 C   0  0  0  0  0  0  0  0  0  0  0  0
   15.9584  -28.3981  -11.9566 C   0  0  0  0  0  0  0  0  0  0  0  0
    8.5896  -25.4045   -8.3929 C   0  0  1  0  0  0  0  0  0  0  0  0
    4.4846  -30.5625   -9.1914 C   0  0  0  0  0  0  0  0  0  0  0  0
    6.5546  -28.5084   -8.5513 C   0  0  0  0  0  0  0  0  0  0  0  0
   11.9003  -25.5100  -10.2831 C   0  0  0  0  0  0  0  0  0  0  0  0
   14.3303  -26.9943  -11.2286 C   0  0  0  0  0  0  0  0  0  0  0  0
    3.3234  -29.9007   -9.9386 C   0  0  0  0  0  0  0  0  0  0  0  0
   11.5278  -23.5273  -11.9829 N   0  0  0  0  0  0  0  0  0  0  0  0
    7.0623  -27.1569   -8.5756 N   0  0  0  0  0  0  0  0  0  0  0  0
   10.8497  -25.4288   -9.2848 N   0  0  0  0  0  0  0  0  0  0  0  0
    5.3524  -26.0487   -9.7497 O   0  0  0  0  0  0  0  0  0  0  0  0
    9.0280  -25.6616  -10.7150 O   0  0  0  0  0  0  0  0  0  0  0  0
   14.4501  -28.0506  -10.2580 O   0  0  0  0  0  0  0  0  0  0  0  0
   15.3943  -27.1086  -12.1892 O   0  0  0  0  0  0  0  0  0  0  0  0
    7.3246  -24.2107   -9.7362 H   0  0  0  0  0  0  0  0  0  0  0  0
    6.7568  -24.2871   -8.0390 H   0  0  0  0  0  0  0  0  0  0  0  0
    5.3005  -30.6504   -7.1827 H   0  0  0  0  0  0  0  0  0  0  0  0
    3.6757  -29.9793   -7.2603 H   0  0  0  0  0  0  0  0  0  0  0  0
    5.6348  -30.7800  -11.0209 H   0  0  0  0  0  0  0  0  0  0  0  0
    6.5387  -31.1589   -9.5594 H   0  0  0  0  0  0  0  0  0  0  0  0
    4.5146  -27.8676   -8.1745 H   0  0  0  0  0  0  0  0  0  0  0  0
    5.4299  -28.2795   -6.7343 H   0  0  0  0  0  0  0  0  0  0  0  0
    7.3706  -29.0777  -10.4540 H   0  0  0  0  0  0  0  0  0  0  0  0
    5.7644  -28.3801  -10.5695 H   0  0  0  0  0  0  0  0  0  0  0  0
   13.3290  -26.0728   -8.7488 H   0  0  0  0  0  0  0  0  0  0  0  0
   13.3843  -24.3622   -9.1616 H   0  0  0  0  0  0  0  0  0  0  0  0
   10.8724  -26.9216  -11.5977 H   0  0  0  0  0  0  0  0  0  0  0  0
   11.7541  -27.6755  -10.2736 H   0  0  0  0  0  0  0  0  0  0  0  0
   14.5269  -24.8388  -11.2768 H   0  0  0  0  0  0  0  0  0  0  0  0
   15.3776  -25.5990   -9.9479 H   0  0  0  0  0  0  0  0  0  0  0  0
   12.8859  -28.1421  -12.3596 H   0  0  0  0  0  0  0  0  0  0  0  0
   12.9511  -26.4491  -12.8056 H   0  0  0  0  0  0  0  0  0  0  0  0
    9.0629  -27.5265   -8.0999 H   0  0  0  0  0  0  0  0  0  0  0  0
    8.0614  -26.7970   -6.8068 H   0  0  0  0  0  0  0  0  0  0  0  0
   15.7691  -29.6597  -10.1869 H   0  0  0  0  0  0  0  0  0  0  0  0
   16.4672  -28.0448   -9.8855 H   0  0  0  0  0  0  0  0  0  0  0  0
   17.0110  -28.4191  -12.2493 H   0  0  0  0  0  0  0  0  0  0  0  0
   15.4010  -29.1273  -12.5543 H   0  0  0  0  0  0  0  0  0  0  0  0
    9.0774  -24.7877   -7.6672 H   0  0  0  0  0  0  0  0  0  0  0  0
    4.2409  -31.6410   -9.0879 H   0  0  0  0  0  0  0  0  0  0  0  0
    7.3139  -29.1006   -8.0287 H   0  0  0  0  0  0  0  0  0  0  0  0
    3.5225  -28.8375  -10.0621 H   0  0  0  0  0  0  0  0  0  0  0  0
    2.4014  -30.0278   -9.3740 H   0  0  0  0  0  0  0  0  0  0  0  0
    3.2074  -30.3585  -10.9196 H   0  0  0  0  0  0  0  0  0  0  0  0
   11.1127  -25.3049   -8.3147 H   0  0  0  0  0  0  0  0  0  0  0  0
  1 19  1  0  0  0  0
  1 22  3  0  0  0  0
  2  4  1  0  0  0  0
  2 23  1  0  0  0  0
  2 25  2  0  0  0  0
  3 16  1  0  0  0  0
  3 24  1  0  0  0  0
  3 26  2  0  0  0  0
  4 16  1  0  0  0  0
  5  7  1  0  0  0  0
  5 17  1  0  0  0  0
  6  8  1  0  0  0  0
  6 17  1  0  0  0  0
  7 18  1  0  0  0  0
  8 18  1  0  0  0  0
  9 11  1  0  0  0  0
  9 19  1  0  0  0  0
 10 12  1  0  0  0  0
 10 19  1  0  0  0  0
 11 20  1  0  0  0  0
 12 20  1  0  0  0  0
 13 16  1  0  0  0  0
 13 23  1  0  0  0  0
 14 15  1  0  0  0  0
 14 27  1  0  0  0  0
 15 28  1  0  0  0  0
 17 21  1  0  0  0  0
 18 23  1  0  0  0  0
 19 24  1  0  0  0  0
 20 27  1  0  0  0  0
 20 28  1  0  0  0  0
  4 29  1  0  0  0  0
  4 30  1  0  0  0  0
  5 31  1  0  0  0  0
  5 32  1  0  0  0  0
  6 33  1  0  0  0  0
  6 34  1  0  0  0  0
  7 35  1  0  0  0  0
  7 36  1  0  0  0  0
  8 37  1  0  0  0  0
  8 38  1  0  0  0  0
  9 39  1  0  0  0  0
  9 40  1  0  0  0  0
 10 41  1  0  0  0  0
 10 42  1  0  0  0  0
 11 43  1  0  0  0  0
 11 44  1  0  0  0  0
 12 45  1  0  0  0  0
 12 46  1  0  0  0  0
 13 47  1  0  0  0  0
 13 48  1  0  0  0  0
 14 49  1  0  0  0  0
 14 50  1  0  0  0  0
 15 51  1  0  0  0  0
 15 52  1  0  0  0  0
 16 53  1  0  0  0  0
 17 54  1  0  0  0  0
 18 55  1  0  0  0  0
 21 56  1  0  0  0  0
 21 57  1  0  0  0  0
 21 58  1  0  0  0  0
 24 59  1  0  0  0  0
M  END
> <Hybrid2>
-3.414538860321045

> <Hybrid2>
-2.905797

$$$$
C67278097
  -OEChem-02152218493D

 55 57  0     1  0  0  0  0  0999 V2000
   13.7617  -24.4052  -13.6414 C   0  0  0  0  0  0  0  0  0  0  0  0
   13.4316  -25.0301  -12.4389 C   0  0  0  0  0  0  0  0  0  0  0  0
   13.5230  -25.0538  -14.8531 C   0  0  0  0  0  0  0  0  0  0  0  0
   12.6241  -26.9524  -13.6597 C   0  0  0  0  0  0  0  0  0  0  0  0
   12.8628  -26.3037  -12.4480 C   0  0  0  0  0  0  0  0  0  0  0  0
   12.9542  -26.3274  -14.8622 C   0  0  0  0  0  0  0  0  0  0  0  0
   11.0040  -27.2541  -11.1575 C   0  0  0  0  0  0  0  0  0  0  0  0
    8.3696  -26.1409   -9.8728 C   0  0  0  0  0  0  0  0  0  0  0  0
   14.5782  -27.7888  -10.2035 C   0  0  0  0  0  0  0  0  0  0  0  0
   14.1966  -26.5160   -9.4509 C   0  0  0  0  0  0  0  0  0  0  0  0
   13.3008  -28.2668  -10.8887 C   0  0  0  0  0  0  0  0  0  0  0  0
   12.7446  -26.2196   -9.8274 C   0  0  0  0  0  0  0  0  0  0  0  0
    6.7629  -26.9033   -8.1552 C   0  0  0  0  0  0  0  0  0  0  0  0
    6.4758  -27.7248  -10.4768 C   0  0  0  0  0  0  0  0  0  0  0  0
    7.0062  -28.2727   -7.5384 C   0  0  0  0  0  0  0  0  0  0  0  0
    6.6886  -29.1943  -10.1450 C   0  0  0  0  0  0  0  0  0  0  0  0
   12.5023  -26.9828  -11.1384 C   0  0  0  0  0  0  0  0  0  0  0  0
   12.6996  -27.0211  -16.1578 C   0  0  0  0  0  0  0  0  0  0  0  0
    8.1995  -24.9594  -12.0510 C   0  0  0  0  0  0  0  0  0  0  0  0
    8.7835  -26.1473  -11.3229 C   0  0  1  0  0  0  0  0  0  0  0  0
    7.2224  -26.8664   -9.5466 N   0  0  0  0  0  0  0  0  0  0  0  0
   10.2146  -26.1178  -11.2823 N   0  0  0  0  0  0  0  0  0  0  0  0
   10.5974  -28.4066  -11.0674 O   0  0  0  0  0  0  0  0  0  0  0  0
    9.0455  -25.5102   -9.0558 O   0  0  0  0  0  0  0  0  0  0  0  0
    4.7661  -29.3664   -8.3639 O   0  0  0  0  0  0  0  0  0  0  0  0
    6.8044  -30.8269   -8.0961 O   0  0  0  0  0  0  0  0  0  0  0  0
    6.1990  -29.5633   -8.4691 S   0  0  0  0  0  0  0  0  0  0  0  0
   14.2045  -23.4134  -13.6343 H   0  0  0  0  0  0  0  0  0  0  0  0
   13.6208  -24.5168  -11.4997 H   0  0  0  0  0  0  0  0  0  0  0  0
   13.7841  -24.5596  -15.7852 H   0  0  0  0  0  0  0  0  0  0  0  0
   12.1798  -27.9449  -13.6674 H   0  0  0  0  0  0  0  0  0  0  0  0
   15.3944  -27.6126  -10.9227 H   0  0  0  0  0  0  0  0  0  0  0  0
   14.9376  -28.5519   -9.4917 H   0  0  0  0  0  0  0  0  0  0  0  0
   14.3301  -26.6304   -8.3713 H   0  0  0  0  0  0  0  0  0  0  0  0
   14.8380  -25.6892   -9.7771 H   0  0  0  0  0  0  0  0  0  0  0  0
   13.5627  -28.7741  -11.8281 H   0  0  0  0  0  0  0  0  0  0  0  0
   12.7651  -28.9907  -10.2623 H   0  0  0  0  0  0  0  0  0  0  0  0
   12.0747  -26.5530   -9.0338 H   0  0  0  0  0  0  0  0  0  0  0  0
   12.6139  -25.1412   -9.9314 H   0  0  0  0  0  0  0  0  0  0  0  0
    5.6952  -26.6553   -8.1518 H   0  0  0  0  0  0  0  0  0  0  0  0
    7.2769  -26.1408   -7.5614 H   0  0  0  0  0  0  0  0  0  0  0  0
    6.7649  -27.5407  -11.5131 H   0  0  0  0  0  0  0  0  0  0  0  0
    5.4164  -27.4563  -10.3895 H   0  0  0  0  0  0  0  0  0  0  0  0
    8.0756  -28.5061   -7.5095 H   0  0  0  0  0  0  0  0  0  0  0  0
    6.6133  -28.3163   -6.5182 H   0  0  0  0  0  0  0  0  0  0  0  0
    6.0921  -29.8332  -10.8030 H   0  0  0  0  0  0  0  0  0  0  0  0
    7.7421  -29.4729  -10.2508 H   0  0  0  0  0  0  0  0  0  0  0  0
   13.5725  -27.6179  -16.4493 H   0  0  0  0  0  0  0  0  0  0  0  0
   11.8299  -27.6872  -16.0888 H   0  0  0  0  0  0  0  0  0  0  0  0
   12.4861  -26.3020  -16.9594 H   0  0  0  0  0  0  0  0  0  0  0  0
    8.5171  -24.0104  -11.6038 H   0  0  0  0  0  0  0  0  0  0  0  0
    8.5242  -24.9574  -13.0969 H   0  0  0  0  0  0  0  0  0  0  0  0
    7.1049  -24.9845  -12.0302 H   0  0  0  0  0  0  0  0  0  0  0  0
    8.4682  -27.0902  -11.7669 H   0  0  0  0  0  0  0  0  0  0  0  0
   10.6808  -25.2110  -11.3488 H   0  0  0  0  0  0  0  0  0  0  0  0
  1  2  1  0  0  0  0
  1  3  2  0  0  0  0
  2  5  2  0  0  0  0
  3  6  1  0  0  0  0
  4  5  1  0  0  0  0
  4  6  2  0  0  0  0
  5 17  1  0  0  0  0
  6 18  1  0  0  0  0
  7 17  1  0  0  0  0
  7 22  1  0  0  0  0
  7 23  2  0  0  0  0
  8 20  1  0  0  0  0
  8 21  1  0  0  0  0
  8 24  2  0  0  0  0
  9 10  1  0  0  0  0
  9 11  1  0  0  0  0
 10 12  1  0  0  0  0
 11 17  1  0  0  0  0
 12 17  1  0  0  0  0
 13 15  1  0  0  0  0
 13 21  1  0  0  0  0
 14 16  1  0  0  0  0
 14 21  1  0  0  0  0
 15 27  1  0  0  0  0
 16 27  1  0  0  0  0
 19 20  1  0  0  0  0
 20 22  1  0  0  0  0
 25 27  2  0  0  0  0
 26 27  2  0  0  0  0
  1 28  1  0  0  0  0
  2 29  1  0  0  0  0
  3 30  1  0  0  0  0
  4 31  1  0  0  0  0
  9 32  1  0  0  0  0
  9 33  1  0  0  0  0
 10 34  1  0  0  0  0
 10 35  1  0  0  0  0
 11 36  1  0  0  0  0
 11 37  1  0  0  0  0
 12 38  1  0  0  0  0
 12 39  1  0  0  0  0
 13 40  1  0  0  0  0
 13 41  1  0  0  0  0
 14 42  1  0  0  0  0
 14 43  1  0  0  0  0
 15 44  1  0  0  0  0
 15 45  1  0  0  0  0
 16 46  1  0  0  0  0
 16 47  1  0  0  0  0
 18 48  1  0  0  0  0
 18 49  1  0  0  0  0
 18 50  1  0  0  0  0
 19 51  1  0  0  0  0
 19 52  1  0  0  0  0
 19 53  1  0  0  0  0
 20 54  1  0  0  0  0
 22 55  1  0  0  0  0
M  END
> <Hybrid2>
-0.9944047927856445

> <Hybrid2>
-0.994405

$$$$
C67278097
  -OEChem-02152218493D

 55 57  0     1  0  0  0  0  0999 V2000
    5.1174  -24.5742   -8.4045 C   0  0  0  0  0  0  0  0  0  0  0  0
    5.5795  -25.8883   -8.3341 C   0  0  0  0  0  0  0  0  0  0  0  0
    5.3097  -23.8286   -9.5677 C   0  0  0  0  0  0  0  0  0  0  0  0
    6.4263  -25.7115  -10.5899 C   0  0  0  0  0  0  0  0  0  0  0  0
    6.2339  -26.4570   -9.4268 C   0  0  0  0  0  0  0  0  0  0  0  0
    5.9642  -24.3972  -10.6603 C   0  0  0  0  0  0  0  0  0  0  0  0
    8.2485  -27.7860   -9.5657 C   0  0  0  0  0  0  0  0  0  0  0  0
   10.5112  -25.6158   -9.5695 C   0  0  0  0  0  0  0  0  0  0  0  0
    6.7079  -30.0872   -8.3642 C   0  0  0  0  0  0  0  0  0  0  0  0
    5.9745  -30.2106   -9.6880 C   0  0  0  0  0  0  0  0  0  0  0  0
    6.5614  -28.6138   -8.0093 C   0  0  0  0  0  0  0  0  0  0  0  0
    6.1140  -28.8501  -10.3785 C   0  0  0  0  0  0  0  0  0  0  0  0
   11.9101  -24.5013  -11.2765 C   0  0  0  0  0  0  0  0  0  0  0  0
   12.6418  -26.7099  -10.4198 C   0  0  0  0  0  0  0  0  0  0  0  0
   11.7309  -24.9497  -12.7192 C   0  0  0  0  0  0  0  0  0  0  0  0
   12.5478  -27.4298  -11.7569 C   0  0  0  0  0  0  0  0  0  0  0  0
    6.7346  -27.8862   -9.3499 C   0  0  0  0  0  0  0  0  0  0  0  0
    6.1704  -23.5997  -11.9038 C   0  0  0  0  0  0  0  0  0  0  0  0
   10.8800  -26.4731   -7.2677 C   0  0  0  0  0  0  0  0  0  0  0  0
   10.3287  -26.7881   -8.6385 C   0  0  1  0  0  0  0  0  0  0  0  0
   11.6689  -25.6108  -10.3494 N   0  0  0  0  0  0  0  0  0  0  0  0
    8.9143  -27.0114   -8.6241 N   0  0  0  0  0  0  0  0  0  0  0  0
    8.7638  -28.3692  -10.5122 O   0  0  0  0  0  0  0  0  0  0  0  0
    9.6508  -24.7321   -9.6019 O   0  0  0  0  0  0  0  0  0  0  0  0
   14.1803  -25.8344  -13.0559 O   0  0  0  0  0  0  0  0  0  0  0  0
   12.3030  -26.9443  -14.3222 O   0  0  0  0  0  0  0  0  0  0  0  0
   12.8121  -26.3107  -13.1215 S   0  0  0  0  0  0  0  0  0  0  0  0
    4.6077  -24.1315   -7.5536 H   0  0  0  0  0  0  0  0  0  0  0  0
    5.4246  -26.4618   -7.4238 H   0  0  0  0  0  0  0  0  0  0  0  0
    4.9470  -22.8051   -9.6133 H   0  0  0  0  0  0  0  0  0  0  0  0
    6.9356  -26.1546  -11.4424 H   0  0  0  0  0  0  0  0  0  0  0  0
    6.2910  -30.7439   -7.5952 H   0  0  0  0  0  0  0  0  0  0  0  0
    7.7657  -30.3451   -8.4922 H   0  0  0  0  0  0  0  0  0  0  0  0
    6.3723  -31.0255  -10.3006 H   0  0  0  0  0  0  0  0  0  0  0  0
    4.9136  -30.4217   -9.5082 H   0  0  0  0  0  0  0  0  0  0  0  0
    5.5655  -28.4406   -7.5786 H   0  0  0  0  0  0  0  0  0  0  0  0
    7.3023  -28.3111   -7.2599 H   0  0  0  0  0  0  0  0  0  0  0  0
    6.7416  -28.9461  -11.2729 H   0  0  0  0  0  0  0  0  0  0  0  0
    5.1258  -28.5226  -10.7259 H   0  0  0  0  0  0  0  0  0  0  0  0
   12.9296  -24.1387  -11.1017 H   0  0  0  0  0  0  0  0  0  0  0  0
   11.2281  -23.6712  -11.0665 H   0  0  0  0  0  0  0  0  0  0  0  0
   12.4967  -27.4272   -9.6100 H   0  0  0  0  0  0  0  0  0  0  0  0
   13.6380  -26.2729  -10.2832 H   0  0  0  0  0  0  0  0  0  0  0  0
   10.7031  -25.2791  -12.9035 H   0  0  0  0  0  0  0  0  0  0  0  0
   11.9646  -24.1359  -13.4123 H   0  0  0  0  0  0  0  0  0  0  0  0
   13.3067  -28.2143  -11.8319 H   0  0  0  0  0  0  0  0  0  0  0  0
   11.5613  -27.8860  -11.8895 H   0  0  0  0  0  0  0  0  0  0  0  0
    7.1239  -23.0597  -11.8573 H   0  0  0  0  0  0  0  0  0  0  0  0
    6.1778  -24.2432  -12.7930 H   0  0  0  0  0  0  0  0  0  0  0  0
    5.3633  -22.8694  -12.0469 H   0  0  0  0  0  0  0  0  0  0  0  0
   10.3922  -25.5979   -6.8231 H   0  0  0  0  0  0  0  0  0  0  0  0
   10.7219  -27.3195   -6.5908 H   0  0  0  0  0  0  0  0  0  0  0  0
   11.9541  -26.2650   -7.3138 H   0  0  0  0  0  0  0  0  0  0  0  0
   10.8130  -27.6574   -9.0804 H   0  0  0  0  0  0  0  0  0  0  0  0
    8.3646  -26.5770   -7.8803 H   0  0  0  0  0  0  0  0  0  0  0  0
  1  2  1  0  0  0  0
  1  3  2  0  0  0  0
  2  5  2  0  0  0  0
  3  6  1  0  0  0  0
  4  5  1  0  0  0  0
  4  6  2  0  0  0  0
  5 17  1  0  0  0  0
  6 18  1  0  0  0  0
  7 17  1  0  0  0  0
  7 22  1  0  0  0  0
  7 23  2  0  0  0  0
  8 20  1  0  0  0  0
  8 21  1  0  0  0  0
  8 24  2  0  0  0  0
  9 10  1  0  0  0  0
  9 11  1  0  0  0  0
 10 12  1  0  0  0  0
 11 17  1  0  0  0  0
 12 17  1  0  0  0  0
 13 15  1  0  0  0  0
 13 21  1  0  0  0  0
 14 16  1  0  0  0  0
 14 21  1  0  0  0  0
 15 27  1  0  0  0  0
 16 27  1  0  0  0  0
 19 20  1  0  0  0  0
 20 22  1  0  0  0  0
 25 27  2  0  0  0  0
 26 27  2  0  0  0  0
  1 28  1  0  0  0  0
  2 29  1  0  0  0  0
  3 30  1  0  0  0  0
  4 31  1  0  0  0  0
  9 32  1  0  0  0  0
  9 33  1  0  0  0  0
 10 34  1  0  0  0  0
 10 35  1  0  0  0  0
 11 36  1  0  0  0  0
 11 37  1  0  0  0  0
 12 38  1  0  0  0  0
 12 39  1  0  0  0  0
 13 40  1  0  0  0  0
 13 41  1  0  0  0  0
 14 42  1  0  0  0  0
 14 43  1  0  0  0  0
 15 44  1  0  0  0  0
 15 45  1  0  0  0  0
 16 46  1  0  0  0  0
 16 47  1  0  0  0  0
 18 48  1  0  0  0  0
 18 49  1  0  0  0  0
 18 50  1  0  0  0  0
 19 51  1  0  0  0  0
 19 52  1  0  0  0  0
 19 53  1  0  0  0  0
 20 54  1  0  0  0  0
 22 55  1  0  0  0  0
M  END
> <Hybrid2>
-0.9944047927856445

> <Hybrid2>
-0.371933

$$$$
C67363744
  -OEChem-02152218493D

 54 56  0     1  0  0  0  0  0999 V2000
    5.6649  -27.9065   -8.6097 C   0  0  0  0  0  0  0  0  0  0  0  0
    7.0055  -29.7522   -9.4055 C   0  0  0  0  0  0  0  0  0  0  0  0
    4.6279  -28.7895   -8.3088 C   0  0  0  0  0  0  0  0  0  0  0  0
    5.9685  -30.6352   -9.1046 C   0  0  0  0  0  0  0  0  0  0  0  0
    6.8537  -28.3879   -9.1581 C   0  0  0  0  0  0  0  0  0  0  0  0
    4.7796  -30.1538   -8.5562 C   0  0  0  0  0  0  0  0  0  0  0  0
    7.9104  -26.0909   -9.2740 C   0  0  0  0  0  0  0  0  0  0  0  0
    9.5507  -26.4917  -11.9295 C   0  0  0  0  0  0  0  0  0  0  0  0
   15.0731  -27.2426  -10.7391 C   0  0  0  0  0  0  0  0  0  0  0  0
    9.2770  -25.5714   -9.6642 C   0  0  0  0  0  0  0  0  0  0  0  0
   11.3825  -26.2166  -14.9876 C   0  0  0  0  0  0  0  0  0  0  0  0
   12.6707  -26.9890  -14.7042 C   0  0  0  0  0  0  0  0  0  0  0  0
   10.1883  -26.8611  -14.2908 C   0  0  0  0  0  0  0  0  0  0  0  0
    9.1983  -27.9452   -9.9672 C   0  0  0  0  0  0  0  0  0  0  0  0
   11.6565  -27.7867  -12.5336 C   0  0  0  0  0  0  0  0  0  0  0  0
    9.8876  -26.6963  -10.4740 C   0  0  1  0  0  0  0  0  0  0  0  0
   12.8916  -27.1565  -13.1930 C   0  0  1  0  0  0  0  0  0  0  0  0
   15.1349  -27.5802   -9.2863 C   0  0  0  0  0  0  0  0  0  0  0  0
    3.1486  -31.9598   -9.8176 C   0  0  0  0  0  0  0  0  0  0  0  0
   14.1390  -27.9924  -12.9180 C   0  0  0  0  0  0  0  0  0  0  0  0
    7.9152  -27.4842   -9.4660 N   0  0  0  0  0  0  0  0  0  0  0  0
   10.4454  -27.0213  -12.8587 N   0  0  0  0  0  0  0  0  0  0  0  0
   14.3274  -28.1296  -11.5131 N   0  0  0  0  0  0  0  0  0  0  0  0
    7.0364  -25.3610   -8.8285 O   0  0  0  0  0  0  0  0  0  0  0  0
    8.5238  -25.8773  -12.2295 O   0  0  0  0  0  0  0  0  0  0  0  0
   15.6547  -26.2466  -11.1532 O   0  0  0  0  0  0  0  0  0  0  0  0
    3.4546  -31.2816   -8.1718 S   0  0  0  0  0  0  0  0  0  0  0  0
    5.5357  -26.8451   -8.4131 H   0  0  0  0  0  0  0  0  0  0  0  0
    7.9276  -30.1385   -9.8326 H   0  0  0  0  0  0  0  0  0  0  0  0
    3.7087  -28.3957   -7.8821 H   0  0  0  0  0  0  0  0  0  0  0  0
    6.1053  -31.6951   -9.3043 H   0  0  0  0  0  0  0  0  0  0  0  0
    9.1777  -24.6355  -10.2211 H   0  0  0  0  0  0  0  0  0  0  0  0
    9.8469  -25.3968   -8.7458 H   0  0  0  0  0  0  0  0  0  0  0  0
   11.4915  -25.1795  -14.6472 H   0  0  0  0  0  0  0  0  0  0  0  0
   11.2052  -26.1823  -16.0683 H   0  0  0  0  0  0  0  0  0  0  0  0
   12.6157  -27.9733  -15.1866 H   0  0  0  0  0  0  0  0  0  0  0  0
   13.5196  -26.4598  -15.1528 H   0  0  0  0  0  0  0  0  0  0  0  0
    9.2911  -26.2581  -14.4623 H   0  0  0  0  0  0  0  0  0  0  0  0
    9.9958  -27.8589  -14.7026 H   0  0  0  0  0  0  0  0  0  0  0  0
    9.0477  -28.7077  -10.7383 H   0  0  0  0  0  0  0  0  0  0  0  0
    9.7488  -28.3790   -9.1250 H   0  0  0  0  0  0  0  0  0  0  0  0
   11.4975  -28.8077  -12.9026 H   0  0  0  0  0  0  0  0  0  0  0  0
   11.8117  -27.8586  -11.4551 H   0  0  0  0  0  0  0  0  0  0  0  0
   10.9534  -26.7385  -10.3985 H   0  0  0  0  0  0  0  0  0  0  0  0
   13.0487  -26.1609  -12.7517 H   0  0  0  0  0  0  0  0  0  0  0  0
   15.9879  -28.2335   -9.0423 H   0  0  0  0  0  0  0  0  0  0  0  0
   15.2609  -26.6878   -8.6523 H   0  0  0  0  0  0  0  0  0  0  0  0
   14.2492  -28.0979   -8.8847 H   0  0  0  0  0  0  0  0  0  0  0  0
    2.3401  -32.6937   -9.7728 H   0  0  0  0  0  0  0  0  0  0  0  0
    4.0521  -32.4474  -10.1919 H   0  0  0  0  0  0  0  0  0  0  0  0
    2.8653  -31.1573  -10.5029 H   0  0  0  0  0  0  0  0  0  0  0  0
   13.9839  -28.9654  -13.3811 H   0  0  0  0  0  0  0  0  0  0  0  0
   14.9822  -27.4721  -13.3692 H   0  0  0  0  0  0  0  0  0  0  0  0
   13.8883  -28.9284  -11.0432 H   0  0  0  0  0  0  0  0  0  0  0  0
  1  3  2  0  0  0  0
  1  5  1  0  0  0  0
  2  4  1  0  0  0  0
  2  5  2  0  0  0  0
  3  6  1  0  0  0  0
  4  6  2  0  0  0  0
  5 21  1  0  0  0  0
  6 27  1  0  0  0  0
  7 10  1  0  0  0  0
  7 21  1  0  0  0  0
  7 24  2  0  0  0  0
  8 16  1  0  0  0  0
  8 22  1  0  0  0  0
  8 25  2  0  0  0  0
  9 18  1  0  0  0  0
  9 23  1  0  0  0  0
  9 26  2  0  0  0  0
 10 16  1  0  0  0  0
 11 12  1  0  0  0  0
 11 13  1  0  0  0  0
 12 17  1  0  0  0  0
 13 22  1  0  0  0  0
 14 16  1  0  0  0  0
 14 21  1  0  0  0  0
 15 17  1  0  0  0  0
 15 22  1  0  0  0  0
 17 20  1  0  0  0  0
 19 27  1  0  0  0  0
 20 23  1  0  0  0  0
  1 28  1  0  0  0  0
  2 29  1  0  0  0  0
  3 30  1  0  0  0  0
  4 31  1  0  0  0  0
 10 32  1  0  0  0  0
 10 33  1  0  0  0  0
 11 34  1  0  0  0  0
 11 35  1  0  0  0  0
 12 36  1  0  0  0  0
 12 37  1  0  0  0  0
 13 38  1  0  0  0  0
 13 39  1  0  0  0  0
 14 40  1  0  0  0  0
 14 41  1  0  0  0  0
 15 42  1  0  0  0  0
 15 43  1  0  0  0  0
 16 44  1  0  0  0  0
 17 45  1  0  0  0  0
 18 46  1  0  0  0  0
 18 47  1  0  0  0  0
 18 48  1  0  0  0  0
 19 49  1  0  0  0  0
 19 50  1  0  0  0  0
 19 51  1  0  0  0  0
 20 52  1  0  0  0  0
 20 53  1  0  0  0  0
 23 54  1  0  0  0  0
M  END
> <Hybrid2>
-5.62220573425293

> <Hybrid2>
-5.622206

$$$$
C67363744
  -OEChem-02152218493D

 54 56  0     1  0  0  0  0  0999 V2000
    6.2636  -26.8154   -9.2268 C   0  0  0  0  0  0  0  0  0  0  0  0
    7.9535  -28.5420   -9.2529 C   0  0  0  0  0  0  0  0  0  0  0  0
    5.2947  -27.7685   -8.9130 C   0  0  0  0  0  0  0  0  0  0  0  0
    6.9845  -29.4950   -8.9391 C   0  0  0  0  0  0  0  0  0  0  0  0
    7.5930  -27.2022   -9.3969 C   0  0  0  0  0  0  0  0  0  0  0  0
    5.6551  -29.1083   -8.7691 C   0  0  0  0  0  0  0  0  0  0  0  0
    8.3756  -24.8470   -9.8939 C   0  0  0  0  0  0  0  0  0  0  0  0
   10.6079  -25.5566  -11.9954 C   0  0  0  0  0  0  0  0  0  0  0  0
   17.1049  -24.6042  -11.5949 C   0  0  0  0  0  0  0  0  0  0  0  0
    9.7255  -24.2078  -10.1364 C   0  0  0  0  0  0  0  0  0  0  0  0
   13.0381  -25.6764  -14.6151 C   0  0  0  0  0  0  0  0  0  0  0  0
   14.3095  -26.1380  -13.9034 C   0  0  0  0  0  0  0  0  0  0  0  0
   11.8002  -26.3374  -14.0171 C   0  0  0  0  0  0  0  0  0  0  0  0
    9.9923  -26.5675   -9.8306 C   0  0  0  0  0  0  0  0  0  0  0  0
   12.9310  -26.5832  -11.8352 C   0  0  0  0  0  0  0  0  0  0  0  0
   10.6290  -25.3679  -10.4995 C   0  0  1  0  0  0  0  0  0  0  0  0
   14.2016  -25.9205  -12.3863 C   0  0  1  0  0  0  0  0  0  0  0  0
   18.3305  -24.0708  -12.2594 C   0  0  0  0  0  0  0  0  0  0  0  0
    5.0895  -30.9370   -6.8073 C   0  0  0  0  0  0  0  0  0  0  0  0
   15.4429  -26.4519  -11.6740 C   0  0  0  0  0  0  0  0  0  0  0  0
    8.5848  -26.2267   -9.7180 N   0  0  0  0  0  0  0  0  0  0  0  0
   11.7443  -26.1249  -12.5700 N   0  0  0  0  0  0  0  0  0  0  0  0
   16.6009  -25.7766  -12.1548 N   0  0  0  0  0  0  0  0  0  0  0  0
    7.3452  -24.1923   -9.8251 O   0  0  0  0  0  0  0  0  0  0  0  0
    9.6112  -25.2066  -12.6326 O   0  0  0  0  0  0  0  0  0  0  0  0
   16.6306  -24.0089  -10.6345 O   0  0  0  0  0  0  0  0  0  0  0  0
    4.4171  -30.3256   -8.3682 S   0  0  0  0  0  0  0  0  0  0  0  0
    5.9716  -25.7741   -9.3370 H   0  0  0  0  0  0  0  0  0  0  0  0
    8.9865  -28.8547   -9.3831 H   0  0  0  0  0  0  0  0  0  0  0  0
    4.2638  -27.4481   -8.7845 H   0  0  0  0  0  0  0  0  0  0  0  0
    7.2846  -30.5344   -8.8308 H   0  0  0  0  0  0  0  0  0  0  0  0
    9.6469  -23.4520  -10.9229 H   0  0  0  0  0  0  0  0  0  0  0  0
   10.0494  -23.7375   -9.2023 H   0  0  0  0  0  0  0  0  0  0  0  0
   12.9468  -24.5859  -14.5374 H   0  0  0  0  0  0  0  0  0  0  0  0
   13.1064  -25.9171  -15.6819 H   0  0  0  0  0  0  0  0  0  0  0  0
   14.4791  -27.2007  -14.1189 H   0  0  0  0  0  0  0  0  0  0  0  0
   15.1707  -25.5893  -14.3024 H   0  0  0  0  0  0  0  0  0  0  0  0
   10.9013  -25.9477  -14.5050 H   0  0  0  0  0  0  0  0  0  0  0  0
   11.8223  -27.4203  -14.1884 H   0  0  0  0  0  0  0  0  0  0  0  0
   10.1088  -27.4985  -10.3946 H   0  0  0  0  0  0  0  0  0  0  0  0
   10.3850  -26.7015   -8.8165 H   0  0  0  0  0  0  0  0  0  0  0  0
   12.9785  -27.6730  -11.9536 H   0  0  0  0  0  0  0  0  0  0  0  0
   12.8461  -26.3828  -10.7651 H   0  0  0  0  0  0  0  0  0  0  0  0
   11.6478  -25.2130  -10.2141 H   0  0  0  0  0  0  0  0  0  0  0  0
   14.1388  -24.8391  -12.1932 H   0  0  0  0  0  0  0  0  0  0  0  0
   18.0948  -23.3700  -13.0763 H   0  0  0  0  0  0  0  0  0  0  0  0
   18.9721  -23.5040  -11.5656 H   0  0  0  0  0  0  0  0  0  0  0  0
   18.9905  -24.8294  -12.7097 H   0  0  0  0  0  0  0  0  0  0  0  0
    4.4390  -31.7159   -6.4020 H   0  0  0  0  0  0  0  0  0  0  0  0
    5.1571  -30.1184   -6.0864 H   0  0  0  0  0  0  0  0  0  0  0  0
    6.0866  -31.3531   -6.9703 H   0  0  0  0  0  0  0  0  0  0  0  0
   15.3068  -26.2697  -10.6093 H   0  0  0  0  0  0  0  0  0  0  0  0
   15.5049  -27.5180  -11.8857 H   0  0  0  0  0  0  0  0  0  0  0  0
   17.0929  -26.1767  -12.9607 H   0  0  0  0  0  0  0  0  0  0  0  0
  1  3  2  0  0  0  0
  1  5  1  0  0  0  0
  2  4  1  0  0  0  0
  2  5  2  0  0  0  0
  3  6  1  0  0  0  0
  4  6  2  0  0  0  0
  5 21  1  0  0  0  0
  6 27  1  0  0  0  0
  7 10  1  0  0  0  0
  7 21  1  0  0  0  0
  7 24  2  0  0  0  0
  8 16  1  0  0  0  0
  8 22  1  0  0  0  0
  8 25  2  0  0  0  0
  9 18  1  0  0  0  0
  9 23  1  0  0  0  0
  9 26  2  0  0  0  0
 10 16  1  0  0  0  0
 11 12  1  0  0  0  0
 11 13  1  0  0  0  0
 12 17  1  0  0  0  0
 13 22  1  0  0  0  0
 14 16  1  0  0  0  0
 14 21  1  0  0  0  0
 15 17  1  0  0  0  0
 15 22  1  0  0  0  0
 17 20  1  0  0  0  0
 19 27  1  0  0  0  0
 20 23  1  0  0  0  0
  1 28  1  0  0  0  0
  2 29  1  0  0  0  0
  3 30  1  0  0  0  0
  4 31  1  0  0  0  0
 10 32  1  0  0  0  0
 10 33  1  0  0  0  0
 11 34  1  0  0  0  0
 11 35  1  0  0  0  0
 12 36  1  0  0  0  0
 12 37  1  0  0  0  0
 13 38  1  0  0  0  0
 13 39  1  0  0  0  0
 14 40  1  0  0  0  0
 14 41  1  0  0  0  0
 15 42  1  0  0  0  0
 15 43  1  0  0  0  0
 16 44  1  0  0  0  0
 17 45  1  0  0  0  0
 18 46  1  0  0  0  0
 18 47  1  0  0  0  0
 18 48  1  0  0  0  0
 19 49  1  0  0  0  0
 19 50  1  0  0  0  0
 19 51  1  0  0  0  0
 20 52  1  0  0  0  0
 20 53  1  0  0  0  0
 23 54  1  0  0  0  0
M  END
> <Hybrid2>
-5.62220573425293

> <Hybrid2>
-5.447815

$$$$
C67371525
  -OEChem-02152218493D

 48 51  0     1  0  0  0  0  0999 V2000
    9.9278  -26.0037  -12.4914 C   0  0  0  0  0  0  0  0  0  0  0  0
   10.8176  -26.2566  -13.5410 C   0  0  0  0  0  0  0  0  0  0  0  0
    6.6106  -29.7363   -7.9093 C   0  0  0  0  0  0  0  0  0  0  0  0
   12.3861  -27.1895  -11.9853 C   0  0  0  0  0  0  0  0  0  0  0  0
    6.3505  -31.0534   -8.2262 C   0  0  0  0  0  0  0  0  0  0  0  0
    5.7074  -28.9639   -8.6768 C   0  0  0  0  0  0  0  0  0  0  0  0
   11.5054  -26.9293  -10.9190 C   0  0  0  0  0  0  0  0  0  0  0  0
   10.2519  -26.3199  -11.1596 C   0  0  0  0  0  0  0  0  0  0  0  0
   12.0478  -26.8462  -13.2888 C   0  0  0  0  0  0  0  0  0  0  0  0
    4.9651  -29.8720   -9.3987 C   0  0  0  0  0  0  0  0  0  0  0  0
    8.1729  -25.3001  -10.2171 C   0  0  0  0  0  0  0  0  0  0  0  0
    7.0301  -25.6423   -9.3387 C   0  0  0  0  0  0  0  0  0  0  0  0
   11.9347  -27.3643   -9.5425 C   0  0  0  0  0  0  0  0  0  0  0  0
    3.8534  -29.5981  -10.3332 C   0  0  0  0  0  0  0  0  0  0  0  0
   11.1677  -26.6167   -8.4712 C   0  0  0  0  0  0  0  0  0  0  0  0
    3.8549  -28.0990  -10.6955 C   0  0  0  0  0  0  0  0  0  0  0  0
    4.1373  -27.1929   -9.4748 C   0  0  0  0  0  0  0  0  0  0  0  0
    9.6801  -26.6913   -8.7671 C   0  0  0  0  0  0  0  0  0  0  0  0
    5.4917  -27.4964   -8.7867 C   0  0  2  0  0  0  0  0  0  0  0  0
   12.8646  -26.2289  -15.4356 C   0  0  0  0  0  0  0  0  0  0  0  0
    9.3317  -26.0795  -10.0650 N   0  0  0  0  0  0  0  0  0  0  0  0
    6.5927  -26.9338   -9.5306 N   0  0  0  0  0  0  0  0  0  0  0  0
    8.0135  -24.3620  -10.9972 O   0  0  0  0  0  0  0  0  0  0  0  0
    6.5855  -24.8156   -8.5571 O   0  0  0  0  0  0  0  0  0  0  0  0
    5.3407  -31.1456   -9.1366 O   0  0  0  0  0  0  0  0  0  0  0  0
   12.9096  -27.0985  -14.3099 O   0  0  0  0  0  0  0  0  0  0  0  0
   14.1114  -26.1872  -15.9725 F   0  0  0  0  0  0  0  0  0  0  0  0
   12.0557  -26.7671  -16.3811 F   0  0  0  0  0  0  0  0  0  0  0  0
    8.9729  -25.5771  -12.7744 H   0  0  0  0  0  0  0  0  0  0  0  0
   10.5321  -25.9974  -14.5574 H   0  0  0  0  0  0  0  0  0  0  0  0
    7.3596  -29.3839   -7.2148 H   0  0  0  0  0  0  0  0  0  0  0  0
   13.3448  -27.6665  -11.7913 H   0  0  0  0  0  0  0  0  0  0  0  0
    6.7730  -31.9944   -7.9052 H   0  0  0  0  0  0  0  0  0  0  0  0
   11.7600  -28.4431   -9.4474 H   0  0  0  0  0  0  0  0  0  0  0  0
   13.0071  -27.1849   -9.4019 H   0  0  0  0  0  0  0  0  0  0  0  0
    3.9416  -30.2036  -11.2410 H   0  0  0  0  0  0  0  0  0  0  0  0
    2.9053  -29.8566   -9.8480 H   0  0  0  0  0  0  0  0  0  0  0  0
   11.3800  -27.0546   -7.4894 H   0  0  0  0  0  0  0  0  0  0  0  0
   11.4858  -25.5671   -8.4301 H   0  0  0  0  0  0  0  0  0  0  0  0
    4.6175  -27.9124  -11.4622 H   0  0  0  0  0  0  0  0  0  0  0  0
    2.8895  -27.8324  -11.1407 H   0  0  0  0  0  0  0  0  0  0  0  0
    4.0930  -26.1387   -9.7739 H   0  0  0  0  0  0  0  0  0  0  0  0
    3.3303  -27.3413   -8.7445 H   0  0  0  0  0  0  0  0  0  0  0  0
    9.3299  -27.7307   -8.7912 H   0  0  0  0  0  0  0  0  0  0  0  0
    9.1505  -26.1880   -7.9526 H   0  0  0  0  0  0  0  0  0  0  0  0
    5.5077  -27.0299   -7.7954 H   0  0  0  0  0  0  0  0  0  0  0  0
   12.5579  -25.2078  -15.1847 H   0  0  0  0  0  0  0  0  0  0  0  0
    7.0624  -27.5119  -10.2215 H   0  0  0  0  0  0  0  0  0  0  0  0
  1  2  1  0  0  0  0
  1  8  2  0  0  0  0
  2  9  2  0  0  0  0
  3  5  2  0  0  0  0
  3  6  1  0  0  0  0
  4  7  2  0  0  0  0
  4  9  1  0  0  0  0
  5 25  1  0  0  0  0
  6 10  2  0  0  0  0
  6 19  1  0  0  0  0
  7  8  1  0  0  0  0
  7 13  1  0  0  0  0
  8 21  1  0  0  0  0
  9 26  1  0  0  0  0
 10 14  1  0  0  0  0
 10 25  1  0  0  0  0
 11 12  1  0  0  0  0
 11 21  1  0  0  0  0
 11 23  2  0  0  0  0
 12 22  1  0  0  0  0
 12 24  2  0  0  0  0
 13 15  1  0  0  0  0
 14 16  1  0  0  0  0
 15 18  1  0  0  0  0
 16 17  1  0  0  0  0
 17 19  1  0  0  0  0
 18 21  1  0  0  0  0
 19 22  1  0  0  0  0
 20 26  1  0  0  0  0
 20 27  1  0  0  0  0
 20 28  1  0  0  0  0
  1 29  1  0  0  0  0
  2 30  1  0  0  0  0
  3 31  1  0  0  0  0
  4 32  1  0  0  0  0
  5 33  1  0  0  0  0
 13 34  1  0  0  0  0
 13 35  1  0  0  0  0
 14 36  1  0  0  0  0
 14 37  1  0  0  0  0
 15 38  1  0  0  0  0
 15 39  1  0  0  0  0
 16 40  1  0  0  0  0
 16 41  1  0  0  0  0
 17 42  1  0  0  0  0
 17 43  1  0  0  0  0
 18 44  1  0  0  0  0
 18 45  1  0  0  0  0
 19 46  1  0  0  0  0
 20 47  1  0  0  0  0
 22 48  1  0  0  0  0
M  END
> <Hybrid2>
-5.207231044769287

> <Hybrid2>
-5.207231

$$$$
C67371525
  -OEChem-02152218493D

 48 51  0     1  0  0  0  0  0999 V2000
    7.0122  -28.9061   -9.1306 C   0  0  0  0  0  0  0  0  0  0  0  0
    5.7373  -29.4400   -8.9141 C   0  0  0  0  0  0  0  0  0  0  0  0
   11.6289  -25.2301  -13.5801 C   0  0  0  0  0  0  0  0  0  0  0  0
    4.7880  -27.2456   -9.0996 C   0  0  0  0  0  0  0  0  0  0  0  0
   11.8358  -25.4454  -14.9268 C   0  0  0  0  0  0  0  0  0  0  0  0
   12.3931  -26.2112  -12.9056 C   0  0  0  0  0  0  0  0  0  0  0  0
    6.0661  -26.6943   -9.3062 C   0  0  0  0  0  0  0  0  0  0  0  0
    7.2100  -27.5261   -9.3185 C   0  0  0  0  0  0  0  0  0  0  0  0
    4.6254  -28.6106   -8.8951 C   0  0  0  0  0  0  0  0  0  0  0  0
   13.0086  -26.9452  -13.8950 C   0  0  0  0  0  0  0  0  0  0  0  0
    9.7029  -27.7045   -9.3831 C   0  0  0  0  0  0  0  0  0  0  0  0
   10.9746  -26.9931   -9.6502 C   0  0  0  0  0  0  0  0  0  0  0  0
    6.1503  -25.2112   -9.5545 C   0  0  0  0  0  0  0  0  0  0  0  0
   13.9520  -28.0718  -13.7368 C   0  0  0  0  0  0  0  0  0  0  0  0
    7.5452  -24.6906   -9.2753 C   0  0  0  0  0  0  0  0  0  0  0  0
   13.8889  -28.5841  -12.2835 C   0  0  0  0  0  0  0  0  0  0  0  0
   13.8086  -27.4355  -11.2515 C   0  0  0  0  0  0  0  0  0  0  0  0
    8.5630  -25.5531  -10.0009 C   0  0  0  0  0  0  0  0  0  0  0  0
   12.5855  -26.5079  -11.4608 C   0  0  2  0  0  0  0  0  0  0  0  0
    3.2898  -30.3042   -7.8926 C   0  0  0  0  0  0  0  0  0  0  0  0
    8.5236  -26.9623   -9.5617 N   0  0  0  0  0  0  0  0  0  0  0  0
   11.3768  -27.1173  -10.9613 N   0  0  0  0  0  0  0  0  0  0  0  0
    9.7870  -28.8779   -9.0225 O   0  0  0  0  0  0  0  0  0  0  0  0
   11.5398  -26.3854   -8.7540 O   0  0  0  0  0  0  0  0  0  0  0  0
   12.6831  -26.4934  -15.1286 O   0  0  0  0  0  0  0  0  0  0  0  0
    3.3854  -29.1304   -8.6918 O   0  0  0  0  0  0  0  0  0  0  0  0
    2.0818  -30.2814   -7.2724 F   0  0  0  0  0  0  0  0  0  0  0  0
    3.2879  -31.3930   -8.7003 F   0  0  0  0  0  0  0  0  0  0  0  0
    7.8238  -29.6228   -9.1696 H   0  0  0  0  0  0  0  0  0  0  0  0
    5.6241  -30.5117   -8.7719 H   0  0  0  0  0  0  0  0  0  0  0  0
   11.0032  -24.4637  -13.1459 H   0  0  0  0  0  0  0  0  0  0  0  0
    3.9130  -26.5986   -9.1004 H   0  0  0  0  0  0  0  0  0  0  0  0
   11.4730  -24.9630  -15.8228 H   0  0  0  0  0  0  0  0  0  0  0  0
    5.8775  -25.0163  -10.5989 H   0  0  0  0  0  0  0  0  0  0  0  0
    5.4373  -24.6756   -8.9165 H   0  0  0  0  0  0  0  0  0  0  0  0
   13.7174  -28.8846  -14.4317 H   0  0  0  0  0  0  0  0  0  0  0  0
   14.9672  -27.7232  -13.9583 H   0  0  0  0  0  0  0  0  0  0  0  0
    7.6262  -23.6498   -9.6085 H   0  0  0  0  0  0  0  0  0  0  0  0
    7.7522  -24.6996   -8.1975 H   0  0  0  0  0  0  0  0  0  0  0  0
   13.0107  -29.2316  -12.1655 H   0  0  0  0  0  0  0  0  0  0  0  0
   14.7679  -29.2061  -12.0796 H   0  0  0  0  0  0  0  0  0  0  0  0
   13.8016  -27.8466  -10.2347 H   0  0  0  0  0  0  0  0  0  0  0  0
   14.7245  -26.8350  -11.3360 H   0  0  0  0  0  0  0  0  0  0  0  0
    8.3933  -25.5437  -11.0847 H   0  0  0  0  0  0  0  0  0  0  0  0
    9.5538  -25.1245   -9.8227 H   0  0  0  0  0  0  0  0  0  0  0  0
   12.7313  -25.5817  -10.8939 H   0  0  0  0  0  0  0  0  0  0  0  0
    4.0727  -30.3763   -7.1300 H   0  0  0  0  0  0  0  0  0  0  0  0
   10.8012  -27.6580  -11.6005 H   0  0  0  0  0  0  0  0  0  0  0  0
  1  2  1  0  0  0  0
  1  8  2  0  0  0  0
  2  9  2  0  0  0  0
  3  5  2  0  0  0  0
  3  6  1  0  0  0  0
  4  7  2  0  0  0  0
  4  9  1  0  0  0  0
  5 25  1  0  0  0  0
  6 10  2  0  0  0  0
  6 19  1  0  0  0  0
  7  8  1  0  0  0  0
  7 13  1  0  0  0  0
  8 21  1  0  0  0  0
  9 26  1  0  0  0  0
 10 14  1  0  0  0  0
 10 25  1  0  0  0  0
 11 12  1  0  0  0  0
 11 21  1  0  0  0  0
 11 23  2  0  0  0  0
 12 22  1  0  0  0  0
 12 24  2  0  0  0  0
 13 15  1  0  0  0  0
 14 16  1  0  0  0  0
 15 18  1  0  0  0  0
 16 17  1  0  0  0  0
 17 19  1  0  0  0  0
 18 21  1  0  0  0  0
 19 22  1  0  0  0  0
 20 26  1  0  0  0  0
 20 27  1  0  0  0  0
 20 28  1  0  0  0  0
  1 29  1  0  0  0  0
  2 30  1  0  0  0  0
  3 31  1  0  0  0  0
  4 32  1  0  0  0  0
  5 33  1  0  0  0  0
 13 34  1  0  0  0  0
 13 35  1  0  0  0  0
 14 36  1  0  0  0  0
 14 37  1  0  0  0  0
 15 38  1  0  0  0  0
 15 39  1  0  0  0  0
 16 40  1  0  0  0  0
 16 41  1  0  0  0  0
 17 42  1  0  0  0  0
 17 43  1  0  0  0  0
 18 44  1  0  0  0  0
 18 45  1  0  0  0  0
 19 46  1  0  0  0  0
 20 47  1  0  0  0  0
 22 48  1  0  0  0  0
M  END
> <Hybrid2>
-5.207231044769287

> <Hybrid2>
-4.894554

$$$$
C11727969
  -OEChem-02152218493D

 32 34  0     0  0  0  0  0  0999 V2000
    7.4316  -24.7637   -9.6860 C   0  0  0  0  0  0  0  0  0  0  0  0
    6.5191  -25.5886   -9.0295 C   0  0  0  0  0  0  0  0  0  0  0  0
    8.1095  -27.4114   -9.0951 C   0  0  0  0  0  0  0  0  0  0  0  0
    9.0293  -26.5896   -9.7535 C   0  0  0  0  0  0  0  0  0  0  0  0
    8.6828  -25.2689  -10.0448 C   0  0  0  0  0  0  0  0  0  0  0  0
    6.8570  -26.9098   -8.7347 C   0  0  0  0  0  0  0  0  0  0  0  0
   12.5477  -26.7603  -11.1572 C   0  0  0  0  0  0  0  0  0  0  0  0
   10.3500  -27.0763  -10.1439 C   0  0  0  0  0  0  0  0  0  0  0  0
   11.2404  -26.2898  -10.7760 C   0  0  0  0  0  0  0  0  0  0  0  0
   10.8623  -24.8661  -11.1025 C   0  0  0  0  0  0  0  0  0  0  0  0
    5.9460  -30.1118   -7.9560 C   0  0  0  0  0  0  0  0  0  0  0  0
    4.0447  -28.8350   -9.0079 C   0  0  0  0  0  0  0  0  0  0  0  0
    5.5467  -28.8940   -8.7754 C   0  0  0  0  0  0  0  0  0  0  0  0
   13.4528  -27.2166  -10.2707 N   0  5  0  0  0  0  0  0  0  0  0  0
   12.9782  -26.7854  -12.4329 N   0  0  0  0  0  0  0  0  0  0  0  0
   14.5192  -27.5490  -11.0405 N   0  0  0  0  0  0  0  0  0  0  0  0
   14.2342  -27.2899  -12.3395 N   0  0  0  0  0  0  0  0  0  0  0  0
    9.6064  -24.4467  -10.7081 N   0  0  0  0  0  0  0  0  0  0  0  0
   11.6428  -24.1243  -11.6991 O   0  0  0  0  0  0  0  0  0  0  0  0
    5.9633  -27.7122   -8.0935 O   0  0  0  0  0  0  0  0  0  0  0  0
    7.1585  -23.7364   -9.9118 H   0  0  0  0  0  0  0  0  0  0  0  0
    5.5450  -25.1964   -8.7499 H   0  0  0  0  0  0  0  0  0  0  0  0
    8.3610  -28.4429   -8.8589 H   0  0  0  0  0  0  0  0  0  0  0  0
   10.5947  -28.1065   -9.9002 H   0  0  0  0  0  0  0  0  0  0  0  0
    5.4433  -30.1187   -6.9841 H   0  0  0  0  0  0  0  0  0  0  0  0
    5.6873  -31.0322   -8.4905 H   0  0  0  0  0  0  0  0  0  0  0  0
    7.0288  -30.1384   -7.7908 H   0  0  0  0  0  0  0  0  0  0  0  0
    3.4966  -28.8116   -8.0611 H   0  0  0  0  0  0  0  0  0  0  0  0
    3.7134  -29.7067   -9.5825 H   0  0  0  0  0  0  0  0  0  0  0  0
    3.7709  -27.9502   -9.5931 H   0  0  0  0  0  0  0  0  0  0  0  0
    6.0652  -28.9164   -9.7395 H   0  0  0  0  0  0  0  0  0  0  0  0
    9.3302  -23.4904  -10.9121 H   0  0  0  0  0  0  0  0  0  0  0  0
  1  2  2  0  0  0  0
  1  5  1  0  0  0  0
  2  6  1  0  0  0  0
  3  4  1  0  0  0  0
  3  6  2  0  0  0  0
  4  5  2  0  0  0  0
  4  8  1  0  0  0  0
  5 18  1  0  0  0  0
  6 20  1  0  0  0  0
  7  9  1  0  0  0  0
  7 14  1  0  0  0  0
  7 15  2  0  0  0  0
  8  9  2  0  0  0  0
  9 10  1  0  0  0  0
 10 18  1  0  0  0  0
 10 19  2  0  0  0  0
 11 13  1  0  0  0  0
 12 13  1  0  0  0  0
 13 20  1  0  0  0  0
 14 16  1  0  0  0  0
 15 17  1  0  0  0  0
 16 17  2  0  0  0  0
  1 21  1  0  0  0  0
  2 22  1  0  0  0  0
  3 23  1  0  0  0  0
  8 24  1  0  0  0  0
 11 25  1  0  0  0  0
 11 26  1  0  0  0  0
 11 27  1  0  0  0  0
 12 28  1  0  0  0  0
 12 29  1  0  0  0  0
 12 30  1  0  0  0  0
 13 31  1  0  0  0  0
 18 32  1  0  0  0  0
M  CHG  1  14  -1
M  END
> <Hybrid2>
-5.100622177124023

> <Hybrid2>
-5.100622

$$$$
C11727969
  -OEChem-02152218493D

 32 34  0     0  0  0  0  0  0999 V2000
    7.4960  -25.1179  -10.0435 C   0  0  0  0  0  0  0  0  0  0  0  0
    6.6270  -25.9099   -9.2941 C   0  0  0  0  0  0  0  0  0  0  0  0
    8.3417  -27.6044   -9.0838 C   0  0  0  0  0  0  0  0  0  0  0  0
    9.2184  -26.8153   -9.8346 C   0  0  0  0  0  0  0  0  0  0  0  0
    8.7881  -25.5751  -10.3100 C   0  0  0  0  0  0  0  0  0  0  0  0
    7.0486  -27.1507   -8.8153 C   0  0  0  0  0  0  0  0  0  0  0  0
   12.7745  -26.9196  -11.1468 C   0  0  0  0  0  0  0  0  0  0  0  0
   10.5793  -27.2534  -10.1339 C   0  0  0  0  0  0  0  0  0  0  0  0
   11.4284  -26.4977  -10.8541 C   0  0  0  0  0  0  0  0  0  0  0  0
   10.9603  -25.1629  -11.3791 C   0  0  0  0  0  0  0  0  0  0  0  0
    6.2614  -29.7944   -9.5885 C   0  0  0  0  0  0  0  0  0  0  0  0
    4.4777  -29.5803   -7.8210 C   0  0  0  0  0  0  0  0  0  0  0  0
    5.3757  -28.8409   -8.8012 C   0  0  0  0  0  0  0  0  0  0  0  0
   13.4897  -27.7163  -10.3300 N   0  5  0  0  0  0  0  0  0  0  0  0
   13.4345  -26.5547  -12.2623 N   0  0  0  0  0  0  0  0  0  0  0  0
   14.6743  -27.8599  -10.9754 N   0  0  0  0  0  0  0  0  0  0  0  0
   14.6413  -27.1620  -12.1363 N   0  0  0  0  0  0  0  0  0  0  0  0
    9.6686  -24.7860  -11.0656 N   0  0  0  0  0  0  0  0  0  0  0  0
   11.7020  -24.4545  -12.0598 O   0  0  0  0  0  0  0  0  0  0  0  0
    6.1971  -27.9212   -8.0839 O   0  0  0  0  0  0  0  0  0  0  0  0
    7.1578  -24.1535  -10.4126 H   0  0  0  0  0  0  0  0  0  0  0  0
    5.6211  -25.5550   -9.0862 H   0  0  0  0  0  0  0  0  0  0  0  0
    8.6586  -28.5733   -8.7043 H   0  0  0  0  0  0  0  0  0  0  0  0
   10.8889  -28.2204   -9.7471 H   0  0  0  0  0  0  0  0  0  0  0  0
    6.8915  -30.3922   -8.9230 H   0  0  0  0  0  0  0  0  0  0  0  0
    5.6489  -30.4721  -10.1929 H   0  0  0  0  0  0  0  0  0  0  0  0
    6.9069  -29.2485  -10.2855 H   0  0  0  0  0  0  0  0  0  0  0  0
    5.0653  -30.1730   -7.1133 H   0  0  0  0  0  0  0  0  0  0  0  0
    3.7972  -30.2497   -8.3579 H   0  0  0  0  0  0  0  0  0  0  0  0
    3.8507  -28.8812   -7.2566 H   0  0  0  0  0  0  0  0  0  0  0  0
    4.7592  -28.2587   -9.4939 H   0  0  0  0  0  0  0  0  0  0  0  0
    9.3317  -23.8888  -11.4034 H   0  0  0  0  0  0  0  0  0  0  0  0
  1  2  2  0  0  0  0
  1  5  1  0  0  0  0
  2  6  1  0  0  0  0
  3  4  1  0  0  0  0
  3  6  2  0  0  0  0
  4  5  2  0  0  0  0
  4  8  1  0  0  0  0
  5 18  1  0  0  0  0
  6 20  1  0  0  0  0
  7  9  1  0  0  0  0
  7 14  1  0  0  0  0
  7 15  2  0  0  0  0
  8  9  2  0  0  0  0
  9 10  1  0  0  0  0
 10 18  1  0  0  0  0
 10 19  2  0  0  0  0
 11 13  1  0  0  0  0
 12 13  1  0  0  0  0
 13 20  1  0  0  0  0
 14 16  1  0  0  0  0
 15 17  1  0  0  0  0
 16 17  2  0  0  0  0
  1 21  1  0  0  0  0
  2 22  1  0  0  0  0
  3 23  1  0  0  0  0
  8 24  1  0  0  0  0
 11 25  1  0  0  0  0
 11 26  1  0  0  0  0
 11 27  1  0  0  0  0
 12 28  1  0  0  0  0
 12 29  1  0  0  0  0
 12 30  1  0  0  0  0
 13 31  1  0  0  0  0
 18 32  1  0  0  0  0
M  CHG  1  14  -1
M  END
> <Hybrid2>
-5.100622177124023

> <Hybrid2>
-4.862275

$$$$
C19847143
  -OEChem-02152218493D

 32 33  0     1  0  0  0  0  0999 V2000
   14.2189  -27.4818  -11.2086 C   0  0  0  0  0  0  0  0  0  0  0  0
   11.3300  -26.3617  -13.2715 C   0  0  0  0  0  0  0  0  0  0  0  0
   12.6306  -26.6938  -12.8923 C   0  0  0  0  0  0  0  0  0  0  0  0
   10.2852  -26.4770  -12.3545 C   0  0  0  0  0  0  0  0  0  0  0  0
   11.8416  -27.2566  -10.6791 C   0  0  0  0  0  0  0  0  0  0  0  0
   12.8864  -27.1413  -11.5961 C   0  0  0  0  0  0  0  0  0  0  0  0
   10.5410  -26.9244  -11.0583 C   0  0  0  0  0  0  0  0  0  0  0  0
    4.6094  -30.1685   -9.8406 C   0  0  0  0  0  0  0  0  0  0  0  0
    5.8283  -30.4812   -9.4022 C   0  0  0  0  0  0  0  0  0  0  0  0
    4.3179  -28.7268  -10.0194 C   0  0  0  0  0  0  0  0  0  0  0  0
    6.8229  -29.4267   -9.1151 C   0  0  0  0  0  0  0  0  0  0  0  0
    8.1338  -26.7547  -10.3350 C   0  0  0  0  0  0  0  0  0  0  0  0
    6.5486  -25.7684   -8.6560 C   0  0  0  0  0  0  0  0  0  0  0  0
    7.3164  -27.0139   -9.0708 C   0  0  1  0  0  0  0  0  0  0  0  0
   15.3012  -27.7584  -10.8939 N   0  0  0  0  0  0  0  0  0  0  0  0
    5.1677  -27.7804   -9.7765 N   0  0  0  0  0  0  0  0  0  0  0  0
    6.4198  -28.1114   -9.3256 N   0  0  0  0  0  0  0  0  0  0  0  0
    9.4809  -27.0400  -10.1279 N   0  0  0  0  0  0  0  0  0  0  0  0
    3.1454  -28.6633  -10.4288 O   0  5  0  0  0  0  0  0  0  0  0  0
    7.9380  -29.7552   -8.7112 O   0  0  0  0  0  0  0  0  0  0  0  0
    7.6080  -26.3829  -11.3803 O   0  0  0  0  0  0  0  0  0  0  0  0
   11.1309  -26.0125  -14.2805 H   0  0  0  0  0  0  0  0  0  0  0  0
   13.4340  -26.5993  -13.6187 H   0  0  0  0  0  0  0  0  0  0  0  0
    9.2756  -26.2153  -12.6611 H   0  0  0  0  0  0  0  0  0  0  0  0
   12.0375  -27.6059   -9.6672 H   0  0  0  0  0  0  0  0  0  0  0  0
    3.8850  -30.9504  -10.0494 H   0  0  0  0  0  0  0  0  0  0  0  0
    6.1204  -31.5133   -9.2455 H   0  0  0  0  0  0  0  0  0  0  0  0
    5.8752  -25.4329   -9.4515 H   0  0  0  0  0  0  0  0  0  0  0  0
    7.2302  -24.9408   -8.4283 H   0  0  0  0  0  0  0  0  0  0  0  0
    5.9488  -25.9605   -7.7599 H   0  0  0  0  0  0  0  0  0  0  0  0
    7.9845  -27.3352   -8.2640 H   0  0  0  0  0  0  0  0  0  0  0  0
    9.7494  -27.3731   -9.2044 H   0  0  0  0  0  0  0  0  0  0  0  0
  1  6  1  0  0  0  0
  1 15  3  0  0  0  0
  2  3  1  0  0  0  0
  2  4  2  0  0  0  0
  3  6  2  0  0  0  0
  4  7  1  0  0  0  0
  5  6  1  0  0  0  0
  5  7  2  0  0  0  0
  7 18  1  0  0  0  0
  8  9  2  0  0  0  0
  8 10  1  0  0  0  0
  9 11  1  0  0  0  0
 10 16  2  0  0  0  0
 10 19  1  0  0  0  0
 11 17  1  0  0  0  0
 11 20  2  0  0  0  0
 12 14  1  0  0  0  0
 12 18  1  0  0  0  0
 12 21  2  0  0  0  0
 13 14  1  0  0  0  0
 14 17  1  0  0  0  0
 16 17  1  0  0  0  0
  2 22  1  0  0  0  0
  3 23  1  0  0  0  0
  4 24  1  0  0  0  0
  5 25  1  0  0  0  0
  8 26  1  0  0  0  0
  9 27  1  0  0  0  0
 13 28  1  0  0  0  0
 13 29  1  0  0  0  0
 13 30  1  0  0  0  0
 14 31  1  0  0  0  0
 18 32  1  0  0  0  0
M  CHG  1  19  -1
M  END
> <Hybrid2>
-5.032739162445068

> <Hybrid2>
-5.032739

$$$$
C19847143
  -OEChem-02152218493D

 32 33  0     1  0  0  0  0  0999 V2000
   14.6534  -27.7156  -11.1668 C   0  0  0  0  0  0  0  0  0  0  0  0
   11.7306  -26.3204  -13.0017 C   0  0  0  0  0  0  0  0  0  0  0  0
   13.0264  -26.7502  -12.7159 C   0  0  0  0  0  0  0  0  0  0  0  0
   10.7342  -26.4151  -12.0301 C   0  0  0  0  0  0  0  0  0  0  0  0
   12.3294  -27.3697  -10.4871 C   0  0  0  0  0  0  0  0  0  0  0  0
   13.3258  -27.2749  -11.4586 C   0  0  0  0  0  0  0  0  0  0  0  0
   11.0336  -26.9398  -10.7729 C   0  0  0  0  0  0  0  0  0  0  0  0
    3.9734  -28.0674   -9.5685 C   0  0  0  0  0  0  0  0  0  0  0  0
    4.9023  -29.0204   -9.5007 C   0  0  0  0  0  0  0  0  0  0  0  0
    4.4228  -26.6819   -9.2966 C   0  0  0  0  0  0  0  0  0  0  0  0
    6.3037  -28.6891   -9.1692 C   0  0  0  0  0  0  0  0  0  0  0  0
    8.6872  -26.6568   -9.9005 C   0  0  0  0  0  0  0  0  0  0  0  0
    7.9035  -25.6869   -7.7210 C   0  0  0  0  0  0  0  0  0  0  0  0
    7.9277  -26.9258   -8.6027 C   0  0  1  0  0  0  0  0  0  0  0  0
   15.7317  -28.0735  -10.9299 N   0  0  0  0  0  0  0  0  0  0  0  0
    5.6425  -26.3604   -9.0038 N   0  0  0  0  0  0  0  0  0  0  0  0
    6.5919  -27.3477   -8.9362 N   0  0  0  0  0  0  0  0  0  0  0  0
   10.0226  -27.0345   -9.7870 N   0  0  0  0  0  0  0  0  0  0  0  0
    3.4127  -25.9659   -9.4123 O   0  5  0  0  0  0  0  0  0  0  0  0
    7.1326  -29.5971   -9.1156 O   0  0  0  0  0  0  0  0  0  0  0  0
    8.1281  -26.2030  -10.8949 O   0  0  0  0  0  0  0  0  0  0  0  0
   11.4977  -25.9110  -13.9804 H   0  0  0  0  0  0  0  0  0  0  0  0
   13.7918  -26.6705  -13.4840 H   0  0  0  0  0  0  0  0  0  0  0  0
    9.7278  -26.0769  -12.2640 H   0  0  0  0  0  0  0  0  0  0  0  0
   12.5593  -27.7791   -9.5053 H   0  0  0  0  0  0  0  0  0  0  0  0
    2.9459  -28.3202   -9.8133 H   0  0  0  0  0  0  0  0  0  0  0  0
    4.6546  -30.0593   -9.6863 H   0  0  0  0  0  0  0  0  0  0  0  0
    7.4370  -24.8411   -8.2364 H   0  0  0  0  0  0  0  0  0  0  0  0
    8.9176  -25.3832   -7.4373 H   0  0  0  0  0  0  0  0  0  0  0  0
    7.3432  -25.8755   -6.7990 H   0  0  0  0  0  0  0  0  0  0  0  0
    8.3973  -27.7613   -8.0718 H   0  0  0  0  0  0  0  0  0  0  0  0
   10.3209  -27.4279   -8.8970 H   0  0  0  0  0  0  0  0  0  0  0  0
  1  6  1  0  0  0  0
  1 15  3  0  0  0  0
  2  3  1  0  0  0  0
  2  4  2  0  0  0  0
  3  6  2  0  0  0  0
  4  7  1  0  0  0  0
  5  6  1  0  0  0  0
  5  7  2  0  0  0  0
  7 18  1  0  0  0  0
  8  9  2  0  0  0  0
  8 10  1  0  0  0  0
  9 11  1  0  0  0  0
 10 16  2  0  0  0  0
 10 19  1  0  0  0  0
 11 17  1  0  0  0  0
 11 20  2  0  0  0  0
 12 14  1  0  0  0  0
 12 18  1  0  0  0  0
 12 21  2  0  0  0  0
 13 14  1  0  0  0  0
 14 17  1  0  0  0  0
 16 17  1  0  0  0  0
  2 22  1  0  0  0  0
  3 23  1  0  0  0  0
  4 24  1  0  0  0  0
  5 25  1  0  0  0  0
  8 26  1  0  0  0  0
  9 27  1  0  0  0  0
 13 28  1  0  0  0  0
 13 29  1  0  0  0  0
 13 30  1  0  0  0  0
 14 31  1  0  0  0  0
 18 32  1  0  0  0  0
M  CHG  1  19  -1
M  END
> <Hybrid2>
-5.032739162445068

> <Hybrid2>
-4.314588

$$$$
C20261378
  -OEChem-02152218493D

 35 36  0     0  0  0  0  0  0999 V2000
   14.2964  -27.9700  -11.1464 C   0  0  0  0  0  0  0  0  0  0  0  0
   12.2034  -25.4679  -12.9395 C   0  0  0  0  0  0  0  0  0  0  0  0
   13.2978  -26.2481  -12.5665 C   0  0  0  0  0  0  0  0  0  0  0  0
   10.9861  -25.6103  -12.2736 C   0  0  0  0  0  0  0  0  0  0  0  0
   11.9575  -27.3132  -10.8617 C   0  0  0  0  0  0  0  0  0  0  0  0
   13.1749  -27.1707  -11.5276 C   0  0  0  0  0  0  0  0  0  0  0  0
   10.8631  -26.5329  -11.2347 C   0  0  0  0  0  0  0  0  0  0  0  0
    4.2530  -30.3431   -9.8063 C   0  0  0  0  0  0  0  0  0  0  0  0
    4.9533  -29.9990   -8.7261 C   0  0  0  0  0  0  0  0  0  0  0  0
    3.7814  -29.2368  -10.6719 C   0  0  0  0  0  0  0  0  0  0  0  0
    5.2333  -28.5794   -8.4263 C   0  0  0  0  0  0  0  0  0  0  0  0
    8.4445  -25.9838  -10.7976 C   0  0  0  0  0  0  0  0  0  0  0  0
    7.3534  -26.4458   -9.8414 C   0  0  0  0  0  0  0  0  0  0  0  0
    6.0297  -25.7153  -10.0620 C   0  0  0  0  0  0  0  0  0  0  0  0
    4.9494  -26.2312   -9.1137 C   0  0  0  0  0  0  0  0  0  0  0  0
   15.2072  -28.6192  -10.8369 N   0  0  0  0  0  0  0  0  0  0  0  0
    4.0105  -27.9843  -10.4358 N   0  0  0  0  0  0  0  0  0  0  0  0
    4.7293  -27.6571   -9.3244 N   0  0  0  0  0  0  0  0  0  0  0  0
    9.6282  -26.6761  -10.5585 N   0  0  0  0  0  0  0  0  0  0  0  0
    3.1609  -29.7741  -11.6059 O   0  5  0  0  0  0  0  0  0  0  0  0
    5.8830  -28.3014   -7.4188 O   0  0  0  0  0  0  0  0  0  0  0  0
    8.2462  -25.1159  -11.6413 O   0  0  0  0  0  0  0  0  0  0  0  0
   12.2994  -24.7489  -13.7479 H   0  0  0  0  0  0  0  0  0  0  0  0
   14.2397  -26.1259  -13.0957 H   0  0  0  0  0  0  0  0  0  0  0  0
   10.1399  -24.9969  -12.5728 H   0  0  0  0  0  0  0  0  0  0  0  0
   11.8579  -28.0324  -10.0510 H   0  0  0  0  0  0  0  0  0  0  0  0
    4.0525  -31.3891  -10.0190 H   0  0  0  0  0  0  0  0  0  0  0  0
    5.3342  -30.7489   -8.0422 H   0  0  0  0  0  0  0  0  0  0  0  0
    7.7043  -26.2795   -8.8156 H   0  0  0  0  0  0  0  0  0  0  0  0
    7.2111  -27.5245   -9.9796 H   0  0  0  0  0  0  0  0  0  0  0  0
    6.1755  -24.6379   -9.9104 H   0  0  0  0  0  0  0  0  0  0  0  0
    5.7080  -25.8465  -11.1033 H   0  0  0  0  0  0  0  0  0  0  0  0
    4.0096  -25.6961   -9.2870 H   0  0  0  0  0  0  0  0  0  0  0  0
    5.2444  -26.0591   -8.0729 H   0  0  0  0  0  0  0  0  0  0  0  0
    9.6026  -27.3657   -9.8101 H   0  0  0  0  0  0  0  0  0  0  0  0
  1  6  1  0  0  0  0
  1 16  3  0  0  0  0
  2  3  1  0  0  0  0
  2  4  2  0  0  0  0
  3  6  2  0  0  0  0
  4  7  1  0  0  0  0
  5  6  1  0  0  0  0
  5  7  2  0  0  0  0
  7 19  1  0  0  0  0
  8  9  2  0  0  0  0
  8 10  1  0  0  0  0
  9 11  1  0  0  0  0
 10 17  2  0  0  0  0
 10 20  1  0  0  0  0
 11 18  1  0  0  0  0
 11 21  2  0  0  0  0
 12 13  1  0  0  0  0
 12 19  1  0  0  0  0
 12 22  2  0  0  0  0
 13 14  1  0  0  0  0
 14 15  1  0  0  0  0
 15 18  1  0  0  0  0
 17 18  1  0  0  0  0
  2 23  1  0  0  0  0
  3 24  1  0  0  0  0
  4 25  1  0  0  0  0
  5 26  1  0  0  0  0
  8 27  1  0  0  0  0
  9 28  1  0  0  0  0
 13 29  1  0  0  0  0
 13 30  1  0  0  0  0
 14 31  1  0  0  0  0
 14 32  1  0  0  0  0
 15 33  1  0  0  0  0
 15 34  1  0  0  0  0
 19 35  1  0  0  0  0
M  CHG  1  20  -1
M  END
> <Hybrid2>
-4.742649555206299

> <Hybrid2>
-4.742650

$$$$
C20261378
  -OEChem-02152218493D

 35 36  0     0  0  0  0  0  0999 V2000
   14.6050  -27.9077  -10.8646 C   0  0  0  0  0  0  0  0  0  0  0  0
   12.1834  -26.1984  -13.1162 C   0  0  0  0  0  0  0  0  0  0  0  0
   13.3689  -26.7448  -12.6248 C   0  0  0  0  0  0  0  0  0  0  0  0
   11.0192  -26.2547  -12.3499 C   0  0  0  0  0  0  0  0  0  0  0  0
   12.2261  -27.4041  -10.6008 C   0  0  0  0  0  0  0  0  0  0  0  0
   13.3903  -27.3477  -11.3671 C   0  0  0  0  0  0  0  0  0  0  0  0
   11.0405  -26.8576  -11.0922 C   0  0  0  0  0  0  0  0  0  0  0  0
    4.9349  -30.6787   -8.1990 C   0  0  0  0  0  0  0  0  0  0  0  0
    5.6443  -29.9869   -7.3081 C   0  0  0  0  0  0  0  0  0  0  0  0
    4.3117  -29.9037   -9.2974 C   0  0  0  0  0  0  0  0  0  0  0  0
    5.7886  -28.5213   -7.4291 C   0  0  0  0  0  0  0  0  0  0  0  0
    8.6005  -26.4214  -10.6470 C   0  0  0  0  0  0  0  0  0  0  0  0
    7.6083  -26.6913   -9.5241 C   0  0  0  0  0  0  0  0  0  0  0  0
    6.2071  -26.1699   -9.8391 C   0  0  0  0  0  0  0  0  0  0  0  0
    5.2308  -26.4926   -8.7099 C   0  0  0  0  0  0  0  0  0  0  0  0
   15.5917  -28.3626  -10.4566 N   0  0  0  0  0  0  0  0  0  0  0  0
    4.4199  -28.6201   -9.4301 N   0  0  0  0  0  0  0  0  0  0  0  0
    5.1508  -27.9341   -8.5060 N   0  0  0  0  0  0  0  0  0  0  0  0
    9.8595  -26.9134  -10.3146 N   0  0  0  0  0  0  0  0  0  0  0  0
    3.7082  -30.7324  -10.0011 O   0  5  0  0  0  0  0  0  0  0  0  0
    6.4513  -27.9175   -6.5860 O   0  0  0  0  0  0  0  0  0  0  0  0
    8.2746  -25.8443  -11.6791 O   0  0  0  0  0  0  0  0  0  0  0  0
   12.1670  -25.7281  -14.0952 H   0  0  0  0  0  0  0  0  0  0  0  0
   14.2678  -26.6936  -13.2344 H   0  0  0  0  0  0  0  0  0  0  0  0
   10.1010  -25.8255  -12.7431 H   0  0  0  0  0  0  0  0  0  0  0  0
   12.2390  -27.8742   -9.6193 H   0  0  0  0  0  0  0  0  0  0  0  0
    4.8346  -31.7558   -8.1023 H   0  0  0  0  0  0  0  0  0  0  0  0
    6.1320  -30.4799   -6.4748 H   0  0  0  0  0  0  0  0  0  0  0  0
    7.9866  -26.2152   -8.6113 H   0  0  0  0  0  0  0  0  0  0  0  0
    7.5728  -27.7738   -9.3513 H   0  0  0  0  0  0  0  0  0  0  0  0
    6.2468  -25.0845   -9.9989 H   0  0  0  0  0  0  0  0  0  0  0  0
    5.8535  -26.6142  -10.7786 H   0  0  0  0  0  0  0  0  0  0  0  0
    4.2335  -26.1113   -8.9539 H   0  0  0  0  0  0  0  0  0  0  0  0
    5.5537  -26.0116   -7.7801 H   0  0  0  0  0  0  0  0  0  0  0  0
    9.9400  -27.3661   -9.4063 H   0  0  0  0  0  0  0  0  0  0  0  0
  1  6  1  0  0  0  0
  1 16  3  0  0  0  0
  2  3  1  0  0  0  0
  2  4  2  0  0  0  0
  3  6  2  0  0  0  0
  4  7  1  0  0  0  0
  5  6  1  0  0  0  0
  5  7  2  0  0  0  0
  7 19  1  0  0  0  0
  8  9  2  0  0  0  0
  8 10  1  0  0  0  0
  9 11  1  0  0  0  0
 10 17  2  0  0  0  0
 10 20  1  0  0  0  0
 11 18  1  0  0  0  0
 11 21  2  0  0  0  0
 12 13  1  0  0  0  0
 12 19  1  0  0  0  0
 12 22  2  0  0  0  0
 13 14  1  0  0  0  0
 14 15  1  0  0  0  0
 15 18  1  0  0  0  0
 17 18  1  0  0  0  0
  2 23  1  0  0  0  0
  3 24  1  0  0  0  0
  4 25  1  0  0  0  0
  5 26  1  0  0  0  0
  8 27  1  0  0  0  0
  9 28  1  0  0  0  0
 13 29  1  0  0  0  0
 13 30  1  0  0  0  0
 14 31  1  0  0  0  0
 14 32  1  0  0  0  0
 15 33  1  0  0  0  0
 15 34  1  0  0  0  0
 19 35  1  0  0  0  0
M  CHG  1  20  -1
M  END
> <Hybrid2>
-4.742649555206299

> <Hybrid2>
-4.717968

$$$$
C35411054
  -OEChem-02152218493D

 32 33  0     1  0  0  0  0  0999 V2000
    9.4515  -27.5816   -9.9314 C   0  0  0  0  0  0  0  0  0  0  0  0
    8.3584  -28.2203   -9.3504 C   0  0  0  0  0  0  0  0  0  0  0  0
    8.2236  -24.0681  -10.0276 C   0  0  0  0  0  0  0  0  0  0  0  0
    7.0717  -23.3927   -9.6540 C   0  0  0  0  0  0  0  0  0  0  0  0
    6.0770  -25.3158   -8.8878 C   0  0  0  0  0  0  0  0  0  0  0  0
    8.2875  -25.4493   -9.8105 C   0  0  0  0  0  0  0  0  0  0  0  0
    7.1829  -26.0997   -9.2226 C   0  0  0  0  0  0  0  0  0  0  0  0
    9.4184  -26.2050  -10.1607 C   0  0  0  0  0  0  0  0  0  0  0  0
    7.2273  -27.4853   -8.9963 C   0  0  0  0  0  0  0  0  0  0  0  0
   12.6074  -25.4105  -12.0433 C   0  0  0  0  0  0  0  0  0  0  0  0
   11.4788  -27.6353  -13.8226 C   0  0  0  0  0  0  0  0  0  0  0  0
   10.6226  -26.8123  -12.8679 C   0  0  0  0  0  0  0  0  0  0  0  0
   11.4119  -26.3004  -11.6583 C   0  0  2  0  0  0  0  0  0  0  0  0
    5.9959  -23.9812   -9.0892 N   0  0  0  0  0  0  0  0  0  0  0  0
   10.5556  -25.6043  -10.7533 N   0  0  0  0  0  0  0  0  0  0  0  0
    6.1377  -28.1888   -8.4053 N   0  3  0  0  0  0  0  0  0  0  0  0
   12.3426  -24.3636  -12.6966 O   0  5  0  0  0  0  0  0  0  0  0  0
    6.1034  -28.3104   -7.1594 O   0  5  0  0  0  0  0  0  0  0  0  0
   13.7299  -25.8487  -11.6564 O   0  0  0  0  0  0  0  0  0  0  0  0
    5.2505  -28.6627   -9.1514 O   0  0  0  0  0  0  0  0  0  0  0  0
   10.3262  -28.1669  -10.2036 H   0  0  0  0  0  0  0  0  0  0  0  0
    8.4031  -29.2932   -9.1794 H   0  0  0  0  0  0  0  0  0  0  0  0
    9.0397  -23.5099  -10.4751 H   0  0  0  0  0  0  0  0  0  0  0  0
    6.9834  -22.3218   -9.8061 H   0  0  0  0  0  0  0  0  0  0  0  0
    5.1857  -25.7372   -8.4318 H   0  0  0  0  0  0  0  0  0  0  0  0
   11.9384  -28.4878  -13.3133 H   0  0  0  0  0  0  0  0  0  0  0  0
   10.8811  -28.0134  -14.6580 H   0  0  0  0  0  0  0  0  0  0  0  0
   12.2832  -27.0174  -14.2342 H   0  0  0  0  0  0  0  0  0  0  0  0
   10.1851  -25.9726  -13.4226 H   0  0  0  0  0  0  0  0  0  0  0  0
    9.7885  -27.4379  -12.5268 H   0  0  0  0  0  0  0  0  0  0  0  0
   11.8104  -27.1613  -11.1064 H   0  0  0  0  0  0  0  0  0  0  0  0
   10.7404  -24.6530  -10.5067 H   0  0  0  0  0  0  0  0  0  0  0  0
  1  2  2  0  0  0  0
  1  8  1  0  0  0  0
  2  9  1  0  0  0  0
  3  4  2  0  0  0  0
  3  6  1  0  0  0  0
  4 14  1  0  0  0  0
  5  7  1  0  0  0  0
  5 14  2  0  0  0  0
  6  7  1  0  0  0  0
  6  8  2  0  0  0  0
  7  9  2  0  0  0  0
  8 15  1  0  0  0  0
  9 16  1  0  0  0  0
 10 13  1  0  0  0  0
 10 17  1  0  0  0  0
 10 19  2  0  0  0  0
 11 12  1  0  0  0  0
 12 13  1  0  0  0  0
 13 15  1  0  0  0  0
 16 18  1  0  0  0  0
 16 20  2  0  0  0  0
  1 21  1  0  0  0  0
  2 22  1  0  0  0  0
  3 23  1  0  0  0  0
  4 24  1  0  0  0  0
  5 25  1  0  0  0  0
 11 26  1  0  0  0  0
 11 27  1  0  0  0  0
 11 28  1  0  0  0  0
 12 29  1  0  0  0  0
 12 30  1  0  0  0  0
 13 31  1  0  0  0  0
 15 32  1  0  0  0  0
M  CHG  3  16   1  17  -1  18  -1
M  END
> <Hybrid2>
-4.799695014953613

> <Hybrid2>
-4.799695

$$$$
C35411054
  -OEChem-02152218493D

 32 33  0     1  0  0  0  0  0999 V2000
    9.9300  -24.8509  -10.0729 C   0  0  0  0  0  0  0  0  0  0  0  0
    8.7557  -24.2118   -9.6820 C   0  0  0  0  0  0  0  0  0  0  0  0
    8.9137  -28.4176   -9.7445 C   0  0  0  0  0  0  0  0  0  0  0  0
    7.7727  -29.1096   -9.3679 C   0  0  0  0  0  0  0  0  0  0  0  0
    6.6079  -27.1691   -8.9772 C   0  0  0  0  0  0  0  0  0  0  0  0
    8.8808  -27.0184   -9.7303 C   0  0  0  0  0  0  0  0  0  0  0  0
    7.6938  -26.3675   -9.3352 C   0  0  0  0  0  0  0  0  0  0  0  0
    9.9943  -26.2452  -10.0976 C   0  0  0  0  0  0  0  0  0  0  0  0
    7.6403  -24.9640   -9.3141 C   0  0  0  0  0  0  0  0  0  0  0  0
   11.3634  -25.9071  -12.7408 C   0  0  0  0  0  0  0  0  0  0  0  0
   14.3764  -26.4330  -12.5544 C   0  0  0  0  0  0  0  0  0  0  0  0
   13.3540  -27.0906  -11.6357 C   0  0  0  0  0  0  0  0  0  0  0  0
   12.1037  -26.2288  -11.4301 C   0  0  2  0  0  0  0  0  0  0  0  0
    6.6197  -28.5211   -8.9844 N   0  0  0  0  0  0  0  0  0  0  0  0
   11.2111  -26.8454  -10.5030 N   0  0  0  0  0  0  0  0  0  0  0  0
    6.4650  -24.2592   -8.9229 N   0  3  0  0  0  0  0  0  0  0  0  0
   10.9444  -26.8936  -13.4074 O   0  5  0  0  0  0  0  0  0  0  0  0
    5.6226  -23.9583   -9.7993 O   0  5  0  0  0  0  0  0  0  0  0  0
   11.2695  -24.6714  -12.9972 O   0  0  0  0  0  0  0  0  0  0  0  0
    6.3133  -23.9636   -7.7154 O   0  0  0  0  0  0  0  0  0  0  0  0
   10.7921  -24.2522  -10.3560 H   0  0  0  0  0  0  0  0  0  0  0  0
    8.7248  -23.1249   -9.6695 H   0  0  0  0  0  0  0  0  0  0  0  0
    9.7959  -28.9770  -10.0389 H   0  0  0  0  0  0  0  0  0  0  0  0
    7.7584  -30.1947   -9.3654 H   0  0  0  0  0  0  0  0  0  0  0  0
    5.6576  -26.7486   -8.6610 H   0  0  0  0  0  0  0  0  0  0  0  0
   14.6807  -25.4521  -12.1764 H   0  0  0  0  0  0  0  0  0  0  0  0
   15.2703  -27.0564  -12.6558 H   0  0  0  0  0  0  0  0  0  0  0  0
   13.9486  -26.2897  -13.5518 H   0  0  0  0  0  0  0  0  0  0  0  0
   13.0810  -28.0672  -12.0550 H   0  0  0  0  0  0  0  0  0  0  0  0
   13.8336  -27.2823  -10.6679 H   0  0  0  0  0  0  0  0  0  0  0  0
   12.4033  -25.2729  -10.9816 H   0  0  0  0  0  0  0  0  0  0  0  0
   11.4248  -27.7383  -10.1067 H   0  0  0  0  0  0  0  0  0  0  0  0
  1  2  2  0  0  0  0
  1  8  1  0  0  0  0
  2  9  1  0  0  0  0
  3  4  2  0  0  0  0
  3  6  1  0  0  0  0
  4 14  1  0  0  0  0
  5  7  1  0  0  0  0
  5 14  2  0  0  0  0
  6  7  1  0  0  0  0
  6  8  2  0  0  0  0
  7  9  2  0  0  0  0
  8 15  1  0  0  0  0
  9 16  1  0  0  0  0
 10 13  1  0  0  0  0
 10 17  1  0  0  0  0
 10 19  2  0  0  0  0
 11 12  1  0  0  0  0
 12 13  1  0  0  0  0
 13 15  1  0  0  0  0
 16 18  1  0  0  0  0
 16 20  2  0  0  0  0
  1 21  1  0  0  0  0
  2 22  1  0  0  0  0
  3 23  1  0  0  0  0
  4 24  1  0  0  0  0
  5 25  1  0  0  0  0
 11 26  1  0  0  0  0
 11 27  1  0  0  0  0
 11 28  1  0  0  0  0
 12 29  1  0  0  0  0
 12 30  1  0  0  0  0
 13 31  1  0  0  0  0
 15 32  1  0  0  0  0
M  CHG  3  16   1  17  -1  18  -1
M  END
> <Hybrid2>
-4.799695014953613

> <Hybrid2>
-4.439061

$$$$
C35428821
  -OEChem-02152218493D

 33 34  0     1  0  0  0  0  0999 V2000
    7.9622  -26.4815  -10.2310 C   0  0  0  0  0  0  0  0  0  0  0  0
    9.0951  -27.0339  -10.8062 C   0  0  0  0  0  0  0  0  0  0  0  0
    8.1896  -28.6082   -9.7497 C   0  0  0  0  0  0  0  0  0  0  0  0
    6.2864  -27.7242   -8.7708 C   0  0  0  0  0  0  0  0  0  0  0  0
    6.2136  -28.9973   -8.3465 C   0  0  0  0  0  0  0  0  0  0  0  0
    7.3707  -25.2087  -10.2219 C   0  0  0  0  0  0  0  0  0  0  0  0
    7.0982  -24.4256   -9.1161 C   0  0  0  0  0  0  0  0  0  0  0  0
    6.4353  -23.0416   -9.1879 C   0  0  0  0  0  0  0  0  0  0  0  0
   12.3325  -26.9502  -11.1714 C   0  0  0  0  0  0  0  0  0  0  0  0
   14.7121  -27.6494  -10.9209 C   0  0  0  0  0  0  0  0  0  0  0  0
    9.8609  -24.9527  -11.9207 C   0  0  0  0  0  0  0  0  0  0  0  0
   11.1858  -27.0606  -12.1436 C   0  0  0  0  0  0  0  0  0  0  0  0
    9.2315  -28.3751  -10.4984 N   0  0  0  0  0  0  0  0  0  0  0  0
    7.3964  -27.5188   -9.5551 N   0  0  0  0  0  0  0  0  0  0  0  0
   13.4636  -27.5978  -11.6471 N   0  0  0  0  0  0  0  0  0  0  0  0
   10.0115  -26.3607  -11.6027 N   0  0  3  0  0  0  0  0  0  0  0  0
    6.1279  -22.6101  -10.3341 O   0  5  0  0  0  0  0  0  0  0  0  0
    6.2759  -22.4889   -8.0595 O   0  0  0  0  0  0  0  0  0  0  0  0
   12.2550  -26.3551  -10.0998 O   0  0  0  0  0  0  0  0  0  0  0  0
    7.5565  -29.9997   -8.9252 S   0  0  0  0  0  0  0  0  0  0  0  0
    5.5896  -26.9292   -8.5524 H   0  0  0  0  0  0  0  0  0  0  0  0
    5.4317  -29.4013   -7.7191 H   0  0  0  0  0  0  0  0  0  0  0  0
    7.0576  -24.7634  -11.1992 H   0  0  0  0  0  0  0  0  0  0  0  0
    7.3581  -24.8228   -8.1356 H   0  0  0  0  0  0  0  0  0  0  0  0
   15.3353  -26.7871  -11.2004 H   0  0  0  0  0  0  0  0  0  0  0  0
   14.5089  -27.6199   -9.8402 H   0  0  0  0  0  0  0  0  0  0  0  0
   15.2423  -28.5806  -11.1691 H   0  0  0  0  0  0  0  0  0  0  0  0
   10.6954  -24.6294  -12.5603 H   0  0  0  0  0  0  0  0  0  0  0  0
    8.9103  -24.7964  -12.4517 H   0  0  0  0  0  0  0  0  0  0  0  0
    9.8625  -24.3647  -10.9911 H   0  0  0  0  0  0  0  0  0  0  0  0
   11.4674  -26.6069  -13.0984 H   0  0  0  0  0  0  0  0  0  0  0  0
   10.9347  -28.1133  -12.3029 H   0  0  0  0  0  0  0  0  0  0  0  0
   13.4116  -28.0587  -12.5510 H   0  0  0  0  0  0  0  0  0  0  0  0
  1  2  2  0  0  0  0
  1  6  1  0  0  0  0
  1 14  1  0  0  0  0
  2 13  1  0  0  0  0
  2 16  1  0  0  0  0
  3 13  2  0  0  0  0
  3 14  1  0  0  0  0
  3 20  1  0  0  0  0
  4  5  2  0  0  0  0
  4 14  1  0  0  0  0
  5 20  1  0  0  0  0
  6  7  2  0  0  0  0
  7  8  1  0  0  0  0
  8 17  1  0  0  0  0
  8 18  2  0  0  0  0
  9 12  1  0  0  0  0
  9 15  1  0  0  0  0
  9 19  2  0  0  0  0
 10 15  1  0  0  0  0
 11 16  1  0  0  0  0
 12 16  1  0  0  0  0
  4 21  1  0  0  0  0
  5 22  1  0  0  0  0
  6 23  1  0  0  0  0
  7 24  1  0  0  0  0
 10 25  1  0  0  0  0
 10 26  1  0  0  0  0
 10 27  1  0  0  0  0
 11 28  1  0  0  0  0
 11 29  1  0  0  0  0
 11 30  1  0  0  0  0
 12 31  1  0  0  0  0
 12 32  1  0  0  0  0
 15 33  1  0  0  0  0
M  CHG  1  17  -1
M  END
> <Hybrid2>
-4.88161563873291

> <Hybrid2>
-4.881616

$$$$
C35428821
  -OEChem-02152218493D

 33 34  0     1  0  0  0  0  0999 V2000
    8.4198  -26.0053  -10.2332 C   0  0  0  0  0  0  0  0  0  0  0  0
    9.4751  -26.6672  -10.8395 C   0  0  0  0  0  0  0  0  0  0  0  0
    8.3523  -28.1700   -9.8934 C   0  0  0  0  0  0  0  0  0  0  0  0
    6.5733  -27.1024   -8.8653 C   0  0  0  0  0  0  0  0  0  0  0  0
    6.3241  -28.3789   -8.5266 C   0  0  0  0  0  0  0  0  0  0  0  0
    8.0051  -24.6675  -10.1419 C   0  0  0  0  0  0  0  0  0  0  0  0
    7.8266  -23.9286   -8.9875 C   0  0  0  0  0  0  0  0  0  0  0  0
    7.3572  -22.4659   -8.9699 C   0  0  0  0  0  0  0  0  0  0  0  0
   12.6987  -26.9987  -11.1859 C   0  0  0  0  0  0  0  0  0  0  0  0
   14.9589  -28.0283  -10.9733 C   0  0  0  0  0  0  0  0  0  0  0  0
   10.5286  -24.6404  -11.8104 C   0  0  0  0  0  0  0  0  0  0  0  0
   11.5601  -26.8892  -12.1676 C   0  0  0  0  0  0  0  0  0  0  0  0
    9.4256  -28.0317  -10.6209 N   0  0  0  0  0  0  0  0  0  0  0  0
    7.7108  -26.9984   -9.6299 N   0  0  0  0  0  0  0  0  0  0  0  0
   13.7382  -27.7610  -11.6993 N   0  0  0  0  0  0  0  0  0  0  0  0
   10.4840  -26.0736  -11.5860 N   0  0  3  0  0  0  0  0  0  0  0  0
    7.1254  -21.9229  -10.0860 O   0  5  0  0  0  0  0  0  0  0  0  0
    7.2594  -21.9716   -7.8079 O   0  0  0  0  0  0  0  0  0  0  0  0
   12.6884  -26.4699  -10.0774 O   0  0  0  0  0  0  0  0  0  0  0  0
    7.5269  -29.5139   -9.1655 S   0  0  0  0  0  0  0  0  0  0  0  0
    5.9872  -26.2365   -8.5971 H   0  0  0  0  0  0  0  0  0  0  0  0
    5.4869  -28.7135   -7.9305 H   0  0  0  0  0  0  0  0  0  0  0  0
    7.7674  -24.1211  -11.0887 H   0  0  0  0  0  0  0  0  0  0  0  0
    8.0180  -24.4205   -8.0347 H   0  0  0  0  0  0  0  0  0  0  0  0
   15.6962  -27.2419  -11.1924 H   0  0  0  0  0  0  0  0  0  0  0  0
   14.7478  -28.0422   -9.8938 H   0  0  0  0  0  0  0  0  0  0  0  0
   15.3619  -29.0045  -11.2807 H   0  0  0  0  0  0  0  0  0  0  0  0
   11.4072  -24.3921  -12.4239 H   0  0  0  0  0  0  0  0  0  0  0  0
    9.6146  -24.3227  -12.3335 H   0  0  0  0  0  0  0  0  0  0  0  0
   10.5976  -24.1200  -10.8438 H   0  0  0  0  0  0  0  0  0  0  0  0
   11.9124  -26.4164  -13.0891 H   0  0  0  0  0  0  0  0  0  0  0  0
   11.1714  -27.8856  -12.3974 H   0  0  0  0  0  0  0  0  0  0  0  0
   13.6361  -28.1506  -12.6319 H   0  0  0  0  0  0  0  0  0  0  0  0
  1  2  2  0  0  0  0
  1  6  1  0  0  0  0
  1 14  1  0  0  0  0
  2 13  1  0  0  0  0
  2 16  1  0  0  0  0
  3 13  2  0  0  0  0
  3 14  1  0  0  0  0
  3 20  1  0  0  0  0
  4  5  2  0  0  0  0
  4 14  1  0  0  0  0
  5 20  1  0  0  0  0
  6  7  2  0  0  0  0
  7  8  1  0  0  0  0
  8 17  1  0  0  0  0
  8 18  2  0  0  0  0
  9 12  1  0  0  0  0
  9 15  1  0  0  0  0
  9 19  2  0  0  0  0
 10 15  1  0  0  0  0
 11 16  1  0  0  0  0
 12 16  1  0  0  0  0
  4 21  1  0  0  0  0
  5 22  1  0  0  0  0
  6 23  1  0  0  0  0
  7 24  1  0  0  0  0
 10 25  1  0  0  0  0
 10 26  1  0  0  0  0
 10 27  1  0  0  0  0
 11 28  1  0  0  0  0
 11 29  1  0  0  0  0
 11 30  1  0  0  0  0
 12 31  1  0  0  0  0
 12 32  1  0  0  0  0
 15 33  1  0  0  0  0
M  CHG  1  17  -1
M  END
> <Hybrid2>
-4.88161563873291

> <Hybrid2>
-4.494819

$$$$
C35789016
  -OEChem-02152218493D

 41 41  0     1  0  0  0  0  0999 V2000
    6.3487  -25.4638  -10.4491 C   0  0  0  0  0  0  0  0  0  0  0  0
    6.7995  -30.1946   -8.9288 C   0  0  0  0  0  0  0  0  0  0  0  0
    8.4643  -25.5911  -11.7398 C   0  0  0  0  0  0  0  0  0  0  0  0
   10.6896  -25.7508  -12.8030 C   0  0  0  0  0  0  0  0  0  0  0  0
   11.6244  -27.2847  -10.5915 C   0  0  0  0  0  0  0  0  0  0  0  0
   10.5346  -26.2324  -10.3581 C   0  0  1  0  0  0  0  0  0  0  0  0
   11.7434  -26.8505  -12.8978 C   0  0  1  0  0  0  0  0  0  0  0  0
   11.1122  -24.9594   -9.7337 C   0  0  0  0  0  0  0  0  0  0  0  0
   12.7335  -26.5634  -14.0183 C   0  0  0  0  0  0  0  0  0  0  0  0
    5.8531  -25.7207   -9.0346 C   0  0  0  0  0  0  0  0  0  0  0  0
    5.3898  -29.5940   -8.9431 C   0  0  0  0  0  0  0  0  0  0  0  0
    6.0344  -27.1656   -8.5708 C   0  0  0  0  0  0  0  0  0  0  0  0
    5.2668  -28.1598   -9.4508 C   0  0  0  0  0  0  0  0  0  0  0  0
    9.8334  -25.9119  -11.6220 N   0  0  0  0  0  0  0  0  0  0  0  0
    7.7134  -25.7446  -10.5683 N   0  0  0  0  0  0  0  0  0  0  0  0
    7.5612  -29.7551   -9.8376 O   0  5  0  0  0  0  0  0  0  0  0  0
    5.6265  -25.0469  -11.3501 O   0  0  0  0  0  0  0  0  0  0  0  0
    7.0413  -31.0341   -8.0185 O   0  0  0  0  0  0  0  0  0  0  0  0
    7.9612  -25.1827  -12.7912 O   0  0  0  0  0  0  0  0  0  0  0  0
   12.4781  -26.9213  -11.6737 O   0  0  0  0  0  0  0  0  0  0  0  0
   11.1679  -24.7694  -12.6967 H   0  0  0  0  0  0  0  0  0  0  0  0
   10.0888  -25.7212  -13.7179 H   0  0  0  0  0  0  0  0  0  0  0  0
   12.2482  -27.3956   -9.6980 H   0  0  0  0  0  0  0  0  0  0  0  0
   11.1799  -28.2668  -10.7956 H   0  0  0  0  0  0  0  0  0  0  0  0
    9.8284  -26.6696   -9.6461 H   0  0  0  0  0  0  0  0  0  0  0  0
   11.2682  -27.8208  -13.0914 H   0  0  0  0  0  0  0  0  0  0  0  0
   11.8195  -24.5029  -10.4223 H   0  0  0  0  0  0  0  0  0  0  0  0
   11.6225  -25.2066   -8.8057 H   0  0  0  0  0  0  0  0  0  0  0  0
   10.3082  -24.2569   -9.5260 H   0  0  0  0  0  0  0  0  0  0  0  0
   13.2207  -25.6026  -13.8496 H   0  0  0  0  0  0  0  0  0  0  0  0
   12.2147  -26.5325  -14.9768 H   0  0  0  0  0  0  0  0  0  0  0  0
   13.4945  -27.3436  -14.0537 H   0  0  0  0  0  0  0  0  0  0  0  0
    6.3560  -25.0347   -8.3429 H   0  0  0  0  0  0  0  0  0  0  0  0
    4.7837  -25.4764   -9.0227 H   0  0  0  0  0  0  0  0  0  0  0  0
    4.7858  -30.2445   -9.5884 H   0  0  0  0  0  0  0  0  0  0  0  0
    4.9612  -29.6628   -7.9356 H   0  0  0  0  0  0  0  0  0  0  0  0
    7.1041  -27.4033   -8.6034 H   0  0  0  0  0  0  0  0  0  0  0  0
    5.7180  -27.2715   -7.5261 H   0  0  0  0  0  0  0  0  0  0  0  0
    5.6231  -28.0912  -10.4856 H   0  0  0  0  0  0  0  0  0  0  0  0
    4.2042  -27.8915   -9.4673 H   0  0  0  0  0  0  0  0  0  0  0  0
    8.1866  -26.0424   -9.7233 H   0  0  0  0  0  0  0  0  0  0  0  0
  1 10  1  0  0  0  0
  1 15  1  0  0  0  0
  1 17  2  0  0  0  0
  2 11  1  0  0  0  0
  2 16  1  0  0  0  0
  2 18  2  0  0  0  0
  3 14  1  0  0  0  0
  3 15  1  0  0  0  0
  3 19  2  0  0  0  0
  4  7  1  0  0  0  0
  4 14  1  0  0  0  0
  5  6  1  0  0  0  0
  5 20  1  0  0  0  0
  6  8  1  0  0  0  0
  6 14  1  0  0  0  0
  7  9  1  0  0  0  0
  7 20  1  0  0  0  0
 10 12  1  0  0  0  0
 11 13  1  0  0  0  0
 12 13  1  0  0  0  0
  4 21  1  0  0  0  0
  4 22  1  0  0  0  0
  5 23  1  0  0  0  0
  5 24  1  0  0  0  0
  6 25  1  0  0  0  0
  7 26  1  0  0  0  0
  8 27  1  0  0  0  0
  8 28  1  0  0  0  0
  8 29  1  0  0  0  0
  9 30  1  0  0  0  0
  9 31  1  0  0  0  0
  9 32  1  0  0  0  0
 10 33  1  0  0  0  0
 10 34  1  0  0  0  0
 11 35  1  0  0  0  0
 11 36  1  0  0  0  0
 12 37  1  0  0  0  0
 12 38  1  0  0  0  0
 13 39  1  0  0  0  0
 13 40  1  0  0  0  0
 15 41  1  0  0  0  0
M  CHG  1  16  -1
M  END
> <Hybrid2>
-2.9939277172088623

> <Hybrid2>
-2.993928

$$$$
C35789016
  -OEChem-02152218493D

 41 41  0     1  0  0  0  0  0999 V2000
    7.9214  -26.4494   -9.2387 C   0  0  0  0  0  0  0  0  0  0  0  0
    3.6380  -29.9301   -8.8897 C   0  0  0  0  0  0  0  0  0  0  0  0
   10.2452  -27.0324   -9.8854 C   0  0  0  0  0  0  0  0  0  0  0  0
   12.4861  -27.5823  -10.7705 C   0  0  0  0  0  0  0  0  0  0  0  0
   11.9242  -26.0576  -13.1108 C   0  0  0  0  0  0  0  0  0  0  0  0
   10.7701  -26.7598  -12.3867 C   0  0  1  0  0  0  0  0  0  0  0  0
   13.5308  -26.8074  -11.5686 C   0  0  1  0  0  0  0  0  0  0  0  0
   10.3558  -28.0439  -13.1102 C   0  0  0  0  0  0  0  0  0  0  0  0
   14.8938  -27.4805  -11.4829 C   0  0  0  0  0  0  0  0  0  0  0  0
    6.6602  -25.8916   -9.8797 C   0  0  0  0  0  0  0  0  0  0  0  0
    3.9056  -28.4256   -8.7767 C   0  0  0  0  0  0  0  0  0  0  0  0
    5.3679  -26.4019   -9.2432 C   0  0  0  0  0  0  0  0  0  0  0  0
    5.2300  -27.9257   -9.3476 C   0  0  0  0  0  0  0  0  0  0  0  0
   11.1327  -27.0559  -10.9822 N   0  0  0  0  0  0  0  0  0  0  0  0
    8.9645  -26.5413  -10.1656 N   0  0  0  0  0  0  0  0  0  0  0  0
    2.5382  -30.3019   -8.3880 O   0  5  0  0  0  0  0  0  0  0  0  0
    7.9854  -26.7848   -8.0595 O   0  0  0  0  0  0  0  0  0  0  0  0
    4.5230  -30.6140   -9.4737 O   0  0  0  0  0  0  0  0  0  0  0  0
   10.5605  -27.4349   -8.7612 O   0  0  0  0  0  0  0  0  0  0  0  0
   13.1512  -26.7644  -12.9460 O   0  0  0  0  0  0  0  0  0  0  0  0
   12.4558  -28.6300  -11.0941 H   0  0  0  0  0  0  0  0  0  0  0  0
   12.7427  -27.5791   -9.7061 H   0  0  0  0  0  0  0  0  0  0  0  0
   11.7196  -25.9916  -14.1848 H   0  0  0  0  0  0  0  0  0  0  0  0
   12.0464  -25.0307  -12.7444 H   0  0  0  0  0  0  0  0  0  0  0  0
    9.9226  -26.0684  -12.4100 H   0  0  0  0  0  0  0  0  0  0  0  0
   13.6224  -25.7826  -11.1862 H   0  0  0  0  0  0  0  0  0  0  0  0
   11.1821  -28.7510  -13.1019 H   0  0  0  0  0  0  0  0  0  0  0  0
   10.0898  -27.8140  -14.1393 H   0  0  0  0  0  0  0  0  0  0  0  0
    9.4988  -28.4865  -12.6075 H   0  0  0  0  0  0  0  0  0  0  0  0
   14.8302  -28.5025  -11.8577 H   0  0  0  0  0  0  0  0  0  0  0  0
   15.2342  -27.5050  -10.4473 H   0  0  0  0  0  0  0  0  0  0  0  0
   15.6209  -26.9300  -12.0806 H   0  0  0  0  0  0  0  0  0  0  0  0
    6.6909  -24.7962   -9.8494 H   0  0  0  0  0  0  0  0  0  0  0  0
    6.6789  -26.1935  -10.9342 H   0  0  0  0  0  0  0  0  0  0  0  0
    3.0864  -27.9274   -9.3107 H   0  0  0  0  0  0  0  0  0  0  0  0
    3.8251  -28.1258   -7.7245 H   0  0  0  0  0  0  0  0  0  0  0  0
    5.3687  -26.1095   -8.1866 H   0  0  0  0  0  0  0  0  0  0  0  0
    4.4998  -25.9168   -9.7055 H   0  0  0  0  0  0  0  0  0  0  0  0
    6.0708  -28.4102   -8.8370 H   0  0  0  0  0  0  0  0  0  0  0  0
    5.2863  -28.2285  -10.3996 H   0  0  0  0  0  0  0  0  0  0  0  0
    8.7474  -26.2643  -11.1157 H   0  0  0  0  0  0  0  0  0  0  0  0
  1 10  1  0  0  0  0
  1 15  1  0  0  0  0
  1 17  2  0  0  0  0
  2 11  1  0  0  0  0
  2 16  1  0  0  0  0
  2 18  2  0  0  0  0
  3 14  1  0  0  0  0
  3 15  1  0  0  0  0
  3 19  2  0  0  0  0
  4  7  1  0  0  0  0
  4 14  1  0  0  0  0
  5  6  1  0  0  0  0
  5 20  1  0  0  0  0
  6  8  1  0  0  0  0
  6 14  1  0  0  0  0
  7  9  1  0  0  0  0
  7 20  1  0  0  0  0
 10 12  1  0  0  0  0
 11 13  1  0  0  0  0
 12 13  1  0  0  0  0
  4 21  1  0  0  0  0
  4 22  1  0  0  0  0
  5 23  1  0  0  0  0
  5 24  1  0  0  0  0
  6 25  1  0  0  0  0
  7 26  1  0  0  0  0
  8 27  1  0  0  0  0
  8 28  1  0  0  0  0
  8 29  1  0  0  0  0
  9 30  1  0  0  0  0
  9 31  1  0  0  0  0
  9 32  1  0  0  0  0
 10 33  1  0  0  0  0
 10 34  1  0  0  0  0
 11 35  1  0  0  0  0
 11 36  1  0  0  0  0
 12 37  1  0  0  0  0
 12 38  1  0  0  0  0
 13 39  1  0  0  0  0
 13 40  1  0  0  0  0
 15 41  1  0  0  0  0
M  CHG  1  16  -1
M  END
> <Hybrid2>
-2.9939277172088623

> <Hybrid2>
-1.654248

$$$$
C36811170
  -OEChem-02152218493D

 35 36  0     1  0  0  0  0  0999 V2000
    8.3405  -28.8159   -9.6799 C   0  0  0  0  0  0  0  0  0  0  0  0
    7.1452  -29.3808   -9.1746 C   0  0  0  0  0  0  0  0  0  0  0  0
    6.1801  -28.4089   -9.3008 C   0  0  0  0  0  0  0  0  0  0  0  0
    8.0206  -27.5390  -10.0790 C   0  0  0  0  0  0  0  0  0  0  0  0
   11.2428  -26.9571  -10.4483 C   0  0  0  0  0  0  0  0  0  0  0  0
   10.3150  -27.3233  -12.4952 C   0  0  0  0  0  0  0  0  0  0  0  0
    4.7127  -28.5536   -8.8863 C   0  0  0  0  0  0  0  0  0  0  0  0
   12.3756  -27.4889  -11.3299 C   0  0  2  0  0  0  0  0  0  0  0  0
    6.9823  -30.7390   -8.6227 C   0  0  0  0  0  0  0  0  0  0  0  0
   12.8987  -28.8128  -10.7887 C   0  0  0  0  0  0  0  0  0  0  0  0
   12.9660  -25.1850  -12.0994 C   0  0  0  0  0  0  0  0  0  0  0  0
    8.8177  -26.4246  -10.6928 C   0  0  0  0  0  0  0  0  0  0  0  0
   13.4746  -26.4448  -11.4753 C   0  0  0  0  0  0  0  0  0  0  0  0
   11.6626  -27.6768  -12.5745 N   0  0  0  0  0  0  0  0  0  0  0  0
   10.0925  -26.8873  -11.2040 N   0  0  0  0  0  0  0  0  0  0  0  0
    3.9748  -27.5505   -9.0795 O   0  5  0  0  0  0  0  0  0  0  0  0
   11.3730  -26.6521   -9.2695 O   0  0  0  0  0  0  0  0  0  0  0  0
    9.5064  -27.3959  -13.4115 O   0  0  0  0  0  0  0  0  0  0  0  0
    4.3778  -29.6623   -8.3897 O   0  0  0  0  0  0  0  0  0  0  0  0
    6.7056  -27.2831   -9.8514 O   0  0  0  0  0  0  0  0  0  0  0  0
    9.3151  -29.2790   -9.7455 H   0  0  0  0  0  0  0  0  0  0  0  0
    7.1676  -30.7521   -7.5358 H   0  0  0  0  0  0  0  0  0  0  0  0
    5.9671  -31.1372   -8.7935 H   0  0  0  0  0  0  0  0  0  0  0  0
    7.6745  -31.4618   -9.0886 H   0  0  0  0  0  0  0  0  0  0  0  0
   13.7046  -29.1832  -11.4228 H   0  0  0  0  0  0  0  0  0  0  0  0
   12.0968  -29.5512  -10.7693 H   0  0  0  0  0  0  0  0  0  0  0  0
   13.2795  -28.6780   -9.7760 H   0  0  0  0  0  0  0  0  0  0  0  0
   12.5464  -25.4044  -13.0883 H   0  0  0  0  0  0  0  0  0  0  0  0
   13.7761  -24.4593  -12.2278 H   0  0  0  0  0  0  0  0  0  0  0  0
   12.1758  -24.7385  -11.4866 H   0  0  0  0  0  0  0  0  0  0  0  0
    8.2674  -25.9677  -11.5226 H   0  0  0  0  0  0  0  0  0  0  0  0
    9.0173  -25.6348   -9.9610 H   0  0  0  0  0  0  0  0  0  0  0  0
   13.8920  -26.2193  -10.4888 H   0  0  0  0  0  0  0  0  0  0  0  0
   14.2833  -26.8540  -12.0890 H   0  0  0  0  0  0  0  0  0  0  0  0
   12.0941  -28.0316  -13.4224 H   0  0  0  0  0  0  0  0  0  0  0  0
  1  2  1  0  0  0  0
  1  4  2  0  0  0  0
  2  3  2  0  0  0  0
  2  9  1  0  0  0  0
  3  7  1  0  0  0  0
  3 20  1  0  0  0  0
  4 12  1  0  0  0  0
  4 20  1  0  0  0  0
  5  8  1  0  0  0  0
  5 15  1  0  0  0  0
  5 17  2  0  0  0  0
  6 14  1  0  0  0  0
  6 15  1  0  0  0  0
  6 18  2  0  0  0  0
  7 16  1  0  0  0  0
  7 19  2  0  0  0  0
  8 10  1  0  0  0  0
  8 13  1  0  0  0  0
  8 14  1  0  0  0  0
 11 13  1  0  0  0  0
 12 15  1  0  0  0  0
  1 21  1  0  0  0  0
  9 22  1  0  0  0  0
  9 23  1  0  0  0  0
  9 24  1  0  0  0  0
 10 25  1  0  0  0  0
 10 26  1  0  0  0  0
 10 27  1  0  0  0  0
 11 28  1  0  0  0  0
 11 29  1  0  0  0  0
 11 30  1  0  0  0  0
 12 31  1  0  0  0  0
 12 32  1  0  0  0  0
 13 33  1  0  0  0  0
 13 34  1  0  0  0  0
 14 35  1  0  0  0  0
M  CHG  1  16  -1
M  END
> <Hybrid2>
-3.379629373550415

> <Hybrid2>
-3.379629

$$$$
C36811170
  -OEChem-02152218493D

 35 36  0     1  0  0  0  0  0999 V2000
   10.5815  -27.2996   -9.5077 C   0  0  0  0  0  0  0  0  0  0  0  0
   11.9737  -27.1860   -9.7363 C   0  0  0  0  0  0  0  0  0  0  0  0
   12.1224  -26.9649  -11.0857 C   0  0  0  0  0  0  0  0  0  0  0  0
    9.9788  -27.1395  -10.7337 C   0  0  0  0  0  0  0  0  0  0  0  0
    7.1476  -28.1078   -9.3537 C   0  0  0  0  0  0  0  0  0  0  0  0
    7.1286  -25.8418   -9.5755 C   0  0  0  0  0  0  0  0  0  0  0  0
   13.4564  -26.7752  -11.8141 C   0  0  0  0  0  0  0  0  0  0  0  0
    6.2079  -27.5904   -8.2617 C   0  0  2  0  0  0  0  0  0  0  0  0
   13.0400  -27.2903   -8.7225 C   0  0  0  0  0  0  0  0  0  0  0  0
    6.7477  -27.9398   -6.8812 C   0  0  0  0  0  0  0  0  0  0  0  0
    4.2409  -27.6765   -9.8018 C   0  0  0  0  0  0  0  0  0  0  0  0
    8.5462  -27.1475  -11.1829 C   0  0  0  0  0  0  0  0  0  0  0  0
    4.7941  -28.1112   -8.4825 C   0  0  0  0  0  0  0  0  0  0  0  0
    6.2877  -26.1676   -8.5106 N   0  0  0  0  0  0  0  0  0  0  0  0
    7.6276  -27.0315  -10.0680 N   0  0  0  0  0  0  0  0  0  0  0  0
   13.3928  -26.5829  -13.0579 O   0  5  0  0  0  0  0  0  0  0  0  0
    7.4066  -29.2909   -9.5354 O   0  0  0  0  0  0  0  0  0  0  0  0
    7.3617  -24.7086   -9.9757 O   0  0  0  0  0  0  0  0  0  0  0  0
   14.4953  -26.8292  -11.1029 O   0  0  0  0  0  0  0  0  0  0  0  0
   10.9111  -26.9349  -11.7009 O   0  0  0  0  0  0  0  0  0  0  0  0
   10.0777  -27.4768   -8.5678 H   0  0  0  0  0  0  0  0  0  0  0  0
   13.3839  -28.3321   -8.6118 H   0  0  0  0  0  0  0  0  0  0  0  0
   13.9187  -26.6738   -8.9798 H   0  0  0  0  0  0  0  0  0  0  0  0
   12.7045  -26.9417   -7.7303 H   0  0  0  0  0  0  0  0  0  0  0  0
    6.0721  -27.5674   -6.1107 H   0  0  0  0  0  0  0  0  0  0  0  0
    7.7294  -27.4875   -6.7386 H   0  0  0  0  0  0  0  0  0  0  0  0
    6.8387  -29.0214   -6.7785 H   0  0  0  0  0  0  0  0  0  0  0  0
    4.2328  -26.5817   -9.8576 H   0  0  0  0  0  0  0  0  0  0  0  0
    3.2123  -28.0305   -9.9285 H   0  0  0  0  0  0  0  0  0  0  0  0
    4.8561  -28.0542  -10.6253 H   0  0  0  0  0  0  0  0  0  0  0  0
    8.3518  -26.3152  -11.8681 H   0  0  0  0  0  0  0  0  0  0  0  0
    8.3075  -28.0723  -11.7185 H   0  0  0  0  0  0  0  0  0  0  0  0
    4.7996  -29.2047   -8.4328 H   0  0  0  0  0  0  0  0  0  0  0  0
    4.1454  -27.7486   -7.6789 H   0  0  0  0  0  0  0  0  0  0  0  0
    5.7860  -25.4721   -7.9670 H   0  0  0  0  0  0  0  0  0  0  0  0
  1  2  1  0  0  0  0
  1  4  2  0  0  0  0
  2  3  2  0  0  0  0
  2  9  1  0  0  0  0
  3  7  1  0  0  0  0
  3 20  1  0  0  0  0
  4 12  1  0  0  0  0
  4 20  1  0  0  0  0
  5  8  1  0  0  0  0
  5 15  1  0  0  0  0
  5 17  2  0  0  0  0
  6 14  1  0  0  0  0
  6 15  1  0  0  0  0
  6 18  2  0  0  0  0
  7 16  1  0  0  0  0
  7 19  2  0  0  0  0
  8 10  1  0  0  0  0
  8 13  1  0  0  0  0
  8 14  1  0  0  0  0
 11 13  1  0  0  0  0
 12 15  1  0  0  0  0
  1 21  1  0  0  0  0
  9 22  1  0  0  0  0
  9 23  1  0  0  0  0
  9 24  1  0  0  0  0
 10 25  1  0  0  0  0
 10 26  1  0  0  0  0
 10 27  1  0  0  0  0
 11 28  1  0  0  0  0
 11 29  1  0  0  0  0
 11 30  1  0  0  0  0
 12 31  1  0  0  0  0
 12 32  1  0  0  0  0
 13 33  1  0  0  0  0
 13 34  1  0  0  0  0
 14 35  1  0  0  0  0
M  CHG  1  16  -1
M  END
> <Hybrid2>
-3.379629373550415

> <Hybrid2>
-3.250144

$$$$
C37393664
  -OEChem-02152218493D

 45 46  0     1  0  0  0  0  0999 V2000
   14.1640  -27.9631  -11.3486 C   0  0  0  0  0  0  0  0  0  0  0  0
    9.8888  -26.2617   -9.8211 C   0  0  0  0  0  0  0  0  0  0  0  0
   11.3777  -26.1536  -13.2200 C   0  0  0  0  0  0  0  0  0  0  0  0
   12.7579  -26.7396  -12.9442 C   0  0  0  0  0  0  0  0  0  0  0  0
   10.8391  -25.3647  -12.0263 C   0  0  0  0  0  0  0  0  0  0  0  0
    7.5483  -29.7081   -9.8919 C   0  0  0  0  0  0  0  0  0  0  0  0
    5.6822  -28.9477   -8.5736 C   0  0  0  0  0  0  0  0  0  0  0  0
   12.2240  -26.7358  -10.4876 C   0  0  0  0  0  0  0  0  0  0  0  0
    7.9122  -30.6740   -8.7678 C   0  0  0  0  0  0  0  0  0  0  0  0
    6.0907  -29.9306   -7.4802 C   0  0  0  0  0  0  0  0  0  0  0  0
   12.7361  -27.5587  -11.6613 C   0  0  2  0  0  0  0  0  0  0  0  0
    6.3246  -26.1673   -9.8875 C   0  0  0  0  0  0  0  0  0  0  0  0
    6.4975  -27.5962  -10.3981 C   0  0  0  0  0  0  0  0  0  0  0  0
    7.5741  -25.5953   -9.2212 C   0  0  0  0  0  0  0  0  0  0  0  0
   10.9148  -26.1394  -10.7766 N   0  0  0  0  0  0  0  0  0  0  0  0
    6.8667  -28.5305   -9.3367 N   0  0  0  0  0  0  0  0  0  0  0  0
    8.7157  -25.5735  -10.1084 N   0  0  0  0  0  0  0  0  0  0  0  0
   14.9698  -27.0069  -11.1771 O   0  5  0  0  0  0  0  0  0  0  0  0
   14.3629  -29.2094  -11.3000 O   0  0  0  0  0  0  0  0  0  0  0  0
   10.0117  -26.9283   -8.7880 O   0  0  0  0  0  0  0  0  0  0  0  0
    6.7413  -31.0667   -8.0507 O   0  0  0  0  0  0  0  0  0  0  0  0
   11.4241  -25.5020  -14.1000 H   0  0  0  0  0  0  0  0  0  0  0  0
   10.6792  -26.9647  -13.4613 H   0  0  0  0  0  0  0  0  0  0  0  0
   13.0702  -27.3649  -13.7893 H   0  0  0  0  0  0  0  0  0  0  0  0
   13.4907  -25.9251  -12.8719 H   0  0  0  0  0  0  0  0  0  0  0  0
   11.4295  -24.4538  -11.8732 H   0  0  0  0  0  0  0  0  0  0  0  0
    9.8171  -25.0633  -12.2598 H   0  0  0  0  0  0  0  0  0  0  0  0
    8.4629  -29.4052  -10.4089 H   0  0  0  0  0  0  0  0  0  0  0  0
    6.8964  -30.2167  -10.6100 H   0  0  0  0  0  0  0  0  0  0  0  0
    4.9546  -29.4256   -9.2382 H   0  0  0  0  0  0  0  0  0  0  0  0
    5.2080  -28.0792   -8.1085 H   0  0  0  0  0  0  0  0  0  0  0  0
   12.1806  -27.3558   -9.5854 H   0  0  0  0  0  0  0  0  0  0  0  0
   12.9042  -25.9046  -10.2594 H   0  0  0  0  0  0  0  0  0  0  0  0
    8.3655  -31.5782   -9.1868 H   0  0  0  0  0  0  0  0  0  0  0  0
    8.6359  -30.2310   -8.0730 H   0  0  0  0  0  0  0  0  0  0  0  0
    6.7526  -29.4629   -6.7410 H   0  0  0  0  0  0  0  0  0  0  0  0
    5.2027  -30.2881   -6.9492 H   0  0  0  0  0  0  0  0  0  0  0  0
   12.1307  -28.4631  -11.7894 H   0  0  0  0  0  0  0  0  0  0  0  0
    5.4926  -26.1496   -9.1729 H   0  0  0  0  0  0  0  0  0  0  0  0
    6.0448  -25.5150  -10.7238 H   0  0  0  0  0  0  0  0  0  0  0  0
    5.5816  -27.9679  -10.8675 H   0  0  0  0  0  0  0  0  0  0  0  0
    7.2978  -27.6309  -11.1442 H   0  0  0  0  0  0  0  0  0  0  0  0
    7.8526  -26.2117   -8.3606 H   0  0  0  0  0  0  0  0  0  0  0  0
    7.4071  -24.5739   -8.8657 H   0  0  0  0  0  0  0  0  0  0  0  0
    8.6589  -25.0400  -10.9662 H   0  0  0  0  0  0  0  0  0  0  0  0
  1 11  1  0  0  0  0
  1 18  1  0  0  0  0
  1 19  2  0  0  0  0
  2 15  1  0  0  0  0
  2 17  1  0  0  0  0
  2 20  2  0  0  0  0
  3  4  1  0  0  0  0
  3  5  1  0  0  0  0
  4 11  1  0  0  0  0
  5 15  1  0  0  0  0
  6  9  1  0  0  0  0
  6 16  1  0  0  0  0
  7 10  1  0  0  0  0
  7 16  1  0  0  0  0
  8 11  1  0  0  0  0
  8 15  1  0  0  0  0
  9 21  1  0  0  0  0
 10 21  1  0  0  0  0
 12 13  1  0  0  0  0
 12 14  1  0  0  0  0
 13 16  1  0  0  0  0
 14 17  1  0  0  0  0
  3 22  1  0  0  0  0
  3 23  1  0  0  0  0
  4 24  1  0  0  0  0
  4 25  1  0  0  0  0
  5 26  1  0  0  0  0
  5 27  1  0  0  0  0
  6 28  1  0  0  0  0
  6 29  1  0  0  0  0
  7 30  1  0  0  0  0
  7 31  1  0  0  0  0
  8 32  1  0  0  0  0
  8 33  1  0  0  0  0
  9 34  1  0  0  0  0
  9 35  1  0  0  0  0
 10 36  1  0  0  0  0
 10 37  1  0  0  0  0
 11 38  1  0  0  0  0
 12 39  1  0  0  0  0
 12 40  1  0  0  0  0
 13 41  1  0  0  0  0
 13 42  1  0  0  0  0
 14 43  1  0  0  0  0
 14 44  1  0  0  0  0
 17 45  1  0  0  0  0
M  CHG  1  18  -1
M  END
> <Hybrid2>
-2.1823530197143555

> <Hybrid2>
-2.182353

$$$$
C37393664
  -OEChem-02152218493D

 45 46  0     1  0  0  0  0  0999 V2000
   14.0361  -27.9631  -11.2379 C   0  0  0  0  0  0  0  0  0  0  0  0
    9.7610  -26.2617   -9.7104 C   0  0  0  0  0  0  0  0  0  0  0  0
   11.2499  -26.1536  -13.1093 C   0  0  0  0  0  0  0  0  0  0  0  0
   12.6301  -26.7396  -12.8335 C   0  0  0  0  0  0  0  0  0  0  0  0
   10.7113  -25.3647  -11.9156 C   0  0  0  0  0  0  0  0  0  0  0  0
    7.4205  -29.7081   -9.7812 C   0  0  0  0  0  0  0  0  0  0  0  0
    5.5543  -28.9477   -8.4629 C   0  0  0  0  0  0  0  0  0  0  0  0
   12.0962  -26.7358  -10.3769 C   0  0  0  0  0  0  0  0  0  0  0  0
    7.7844  -30.6740   -8.6571 C   0  0  0  0  0  0  0  0  0  0  0  0
    5.9629  -29.9306   -7.3695 C   0  0  0  0  0  0  0  0  0  0  0  0
   12.6083  -27.5587  -11.5506 C   0  0  2  0  0  0  0  0  0  0  0  0
    6.1968  -26.1673   -9.7768 C   0  0  0  0  0  0  0  0  0  0  0  0
    6.3697  -27.5962  -10.2874 C   0  0  0  0  0  0  0  0  0  0  0  0
    7.4463  -25.5953   -9.1105 C   0  0  0  0  0  0  0  0  0  0  0  0
   10.7870  -26.1394  -10.6659 N   0  0  0  0  0  0  0  0  0  0  0  0
    6.7388  -28.5305   -9.2260 N   0  0  0  0  0  0  0  0  0  0  0  0
    8.5879  -25.5735   -9.9977 N   0  0  0  0  0  0  0  0  0  0  0  0
   14.8420  -27.0069  -11.0664 O   0  5  0  0  0  0  0  0  0  0  0  0
   14.2350  -29.2094  -11.1893 O   0  0  0  0  0  0  0  0  0  0  0  0
    9.8839  -26.9283   -8.6773 O   0  0  0  0  0  0  0  0  0  0  0  0
    6.6135  -31.0667   -7.9400 O   0  0  0  0  0  0  0  0  0  0  0  0
   11.2963  -25.5020  -13.9893 H   0  0  0  0  0  0  0  0  0  0  0  0
   10.5514  -26.9647  -13.3506 H   0  0  0  0  0  0  0  0  0  0  0  0
   12.9423  -27.3649  -13.6786 H   0  0  0  0  0  0  0  0  0  0  0  0
   13.3628  -25.9251  -12.7612 H   0  0  0  0  0  0  0  0  0  0  0  0
   11.3016  -24.4538  -11.7625 H   0  0  0  0  0  0  0  0  0  0  0  0
    9.6892  -25.0633  -12.1491 H   0  0  0  0  0  0  0  0  0  0  0  0
    8.3351  -29.4052  -10.2982 H   0  0  0  0  0  0  0  0  0  0  0  0
    6.7686  -30.2167  -10.4993 H   0  0  0  0  0  0  0  0  0  0  0  0
    4.8268  -29.4256   -9.1275 H   0  0  0  0  0  0  0  0  0  0  0  0
    5.0802  -28.0792   -7.9978 H   0  0  0  0  0  0  0  0  0  0  0  0
   12.0528  -27.3558   -9.4747 H   0  0  0  0  0  0  0  0  0  0  0  0
   12.7764  -25.9046  -10.1487 H   0  0  0  0  0  0  0  0  0  0  0  0
    8.2376  -31.5782   -9.0761 H   0  0  0  0  0  0  0  0  0  0  0  0
    8.5081  -30.2310   -7.9623 H   0  0  0  0  0  0  0  0  0  0  0  0
    6.6248  -29.4629   -6.6303 H   0  0  0  0  0  0  0  0  0  0  0  0
    5.0749  -30.2881   -6.8385 H   0  0  0  0  0  0  0  0  0  0  0  0
   12.0029  -28.4631  -11.6787 H   0  0  0  0  0  0  0  0  0  0  0  0
    5.3647  -26.1496   -9.0622 H   0  0  0  0  0  0  0  0  0  0  0  0
    5.9169  -25.5150  -10.6131 H   0  0  0  0  0  0  0  0  0  0  0  0
    5.4538  -27.9679  -10.7568 H   0  0  0  0  0  0  0  0  0  0  0  0
    7.1700  -27.6309  -11.0335 H   0  0  0  0  0  0  0  0  0  0  0  0
    7.7247  -26.2117   -8.2499 H   0  0  0  0  0  0  0  0  0  0  0  0
    7.2793  -24.5739   -8.7550 H   0  0  0  0  0  0  0  0  0  0  0  0
    8.5311  -25.0400  -10.8554 H   0  0  0  0  0  0  0  0  0  0  0  0
  1 11  1  0  0  0  0
  1 18  1  0  0  0  0
  1 19  2  0  0  0  0
  2 15  1  0  0  0  0
  2 17  1  0  0  0  0
  2 20  2  0  0  0  0
  3  4  1  0  0  0  0
  3  5  1  0  0  0  0
  4 11  1  0  0  0  0
  5 15  1  0  0  0  0
  6  9  1  0  0  0  0
  6 16  1  0  0  0  0
  7 10  1  0  0  0  0
  7 16  1  0  0  0  0
  8 11  1  0  0  0  0
  8 15  1  0  0  0  0
  9 21  1  0  0  0  0
 10 21  1  0  0  0  0
 12 13  1  0  0  0  0
 12 14  1  0  0  0  0
 13 16  1  0  0  0  0
 14 17  1  0  0  0  0
  3 22  1  0  0  0  0
  3 23  1  0  0  0  0
  4 24  1  0  0  0  0
  4 25  1  0  0  0  0
  5 26  1  0  0  0  0
  5 27  1  0  0  0  0
  6 28  1  0  0  0  0
  6 29  1  0  0  0  0
  7 30  1  0  0  0  0
  7 31  1  0  0  0  0
  8 32  1  0  0  0  0
  8 33  1  0  0  0  0
  9 34  1  0  0  0  0
  9 35  1  0  0  0  0
 10 36  1  0  0  0  0
 10 37  1  0  0  0  0
 11 38  1  0  0  0  0
 12 39  1  0  0  0  0
 12 40  1  0  0  0  0
 13 41  1  0  0  0  0
 13 42  1  0  0  0  0
 14 43  1  0  0  0  0
 14 44  1  0  0  0  0
 17 45  1  0  0  0  0
M  CHG  1  18  -1
M  END
> <Hybrid2>
-2.1823530197143555

> <Hybrid2>
-2.161322

$$$$
C37433771
  -OEChem-02152218493D

 35 36  0     0  0  0  0  0  0999 V2000
   12.2594  -26.7644  -12.8534 C   0  0  0  0  0  0  0  0  0  0  0  0
    7.1426  -27.7651   -9.5351 C   0  0  0  0  0  0  0  0  0  0  0  0
   12.5352  -26.8143  -11.5030 C   0  0  0  0  0  0  0  0  0  0  0  0
    6.0485  -26.9848   -9.9470 C   0  0  0  0  0  0  0  0  0  0  0  0
    6.5610  -28.8691   -8.9702 C   0  0  0  0  0  0  0  0  0  0  0  0
   10.3675  -27.1342  -11.4090 C   0  0  0  0  0  0  0  0  0  0  0  0
    8.5466  -27.5136   -9.6523 C   0  0  0  0  0  0  0  0  0  0  0  0
   14.5530  -28.0286  -10.7639 C   0  0  0  0  0  0  0  0  0  0  0  0
    6.0686  -25.6762  -10.6218 C   0  0  0  0  0  0  0  0  0  0  0  0
    7.9082  -29.8022   -7.0550 C   0  0  0  0  0  0  0  0  0  0  0  0
    7.9308  -30.9602   -9.2941 C   0  0  0  0  0  0  0  0  0  0  0  0
   13.8692  -26.6619  -10.8892 C   0  0  0  0  0  0  0  0  0  0  0  0
    7.1011  -30.1264   -8.3146 C   0  0  0  0  0  0  0  0  0  0  0  0
   11.4514  -27.0259  -10.6732 N   0  0  0  0  0  0  0  0  0  0  0  0
    4.8778  -27.5608   -9.6596 N   0  0  0  0  0  0  0  0  0  0  0  0
    9.0384  -27.3556  -10.9680 N   0  0  0  0  0  0  0  0  0  0  0  0
   14.7904  -28.6135  -11.8584 O   0  5  0  0  0  0  0  0  0  0  0  0
    9.3088  -27.4687   -8.6611 O   0  0  0  0  0  0  0  0  0  0  0  0
   14.7969  -28.4013   -9.5813 O   0  0  0  0  0  0  0  0  0  0  0  0
    5.2096  -28.7589   -9.0384 O   0  0  0  0  0  0  0  0  0  0  0  0
   10.5785  -26.9923  -13.1062 S   0  0  0  0  0  0  0  0  0  0  0  0
   12.9400  -26.6111  -13.6790 H   0  0  0  0  0  0  0  0  0  0  0  0
    6.0820  -25.7913  -11.7193 H   0  0  0  0  0  0  0  0  0  0  0  0
    5.1891  -25.0597  -10.3632 H   0  0  0  0  0  0  0  0  0  0  0  0
    6.9516  -25.0749  -10.3400 H   0  0  0  0  0  0  0  0  0  0  0  0
    8.7814  -29.1789   -7.2766 H   0  0  0  0  0  0  0  0  0  0  0  0
    8.2683  -30.7220   -6.5815 H   0  0  0  0  0  0  0  0  0  0  0  0
    7.2931  -29.2669   -6.3230 H   0  0  0  0  0  0  0  0  0  0  0  0
    8.8003  -30.3961   -9.6496 H   0  0  0  0  0  0  0  0  0  0  0  0
    7.3307  -31.2369  -10.1678 H   0  0  0  0  0  0  0  0  0  0  0  0
    8.2974  -31.8857   -8.8366 H   0  0  0  0  0  0  0  0  0  0  0  0
   14.5177  -25.9860  -11.4785 H   0  0  0  0  0  0  0  0  0  0  0  0
   13.8092  -26.1946   -9.8880 H   0  0  0  0  0  0  0  0  0  0  0  0
    6.2525  -30.7491   -8.0013 H   0  0  0  0  0  0  0  0  0  0  0  0
    8.3384  -27.4084  -11.7039 H   0  0  0  0  0  0  0  0  0  0  0  0
  1  3  2  0  0  0  0
  1 21  1  0  0  0  0
  2  4  1  0  0  0  0
  2  5  2  0  0  0  0
  2  7  1  0  0  0  0
  3 12  1  0  0  0  0
  3 14  1  0  0  0  0
  4  9  1  0  0  0  0
  4 15  2  0  0  0  0
  5 13  1  0  0  0  0
  5 20  1  0  0  0  0
  6 14  2  0  0  0  0
  6 16  1  0  0  0  0
  6 21  1  0  0  0  0
  7 16  1  0  0  0  0
  7 18  2  0  0  0  0
  8 12  1  0  0  0  0
  8 17  1  0  0  0  0
  8 19  2  0  0  0  0
 10 13  1  0  0  0  0
 11 13  1  0  0  0  0
 15 20  1  0  0  0  0
  1 22  1  0  0  0  0
  9 23  1  0  0  0  0
  9 24  1  0  0  0  0
  9 25  1  0  0  0  0
 10 26  1  0  0  0  0
 10 27  1  0  0  0  0
 10 28  1  0  0  0  0
 11 29  1  0  0  0  0
 11 30  1  0  0  0  0
 11 31  1  0  0  0  0
 12 32  1  0  0  0  0
 12 33  1  0  0  0  0
 13 34  1  0  0  0  0
 16 35  1  0  0  0  0
M  CHG  1  17  -1
M  END
> <Hybrid2>
-2.416794776916504

> <Hybrid2>
-2.416795

$$$$
C37433771
  -OEChem-02152218493D

 35 36  0     0  0  0  0  0  0999 V2000
   13.9192  -27.6918  -10.3455 C   0  0  0  0  0  0  0  0  0  0  0  0
    7.8129  -27.1048   -9.5947 C   0  0  0  0  0  0  0  0  0  0  0  0
   13.3480  -26.9882  -11.3851 C   0  0  0  0  0  0  0  0  0  0  0  0
    7.1830  -28.2949   -9.1914 C   0  0  0  0  0  0  0  0  0  0  0  0
    6.9917  -26.1214   -9.1104 C   0  0  0  0  0  0  0  0  0  0  0  0
   11.5336  -27.3829  -10.2180 C   0  0  0  0  0  0  0  0  0  0  0  0
    9.0219  -26.9105  -10.3354 C   0  0  0  0  0  0  0  0  0  0  0  0
   14.5256  -24.9922  -12.2347 C   0  0  0  0  0  0  0  0  0  0  0  0
    7.6179  -29.6805   -9.4342 C   0  0  0  0  0  0  0  0  0  0  0  0
    6.9406  -24.0834  -10.5928 C   0  0  0  0  0  0  0  0  0  0  0  0
    8.2547  -24.0448   -8.4418 C   0  0  0  0  0  0  0  0  0  0  0  0
   14.0693  -26.4233  -12.5428 C   0  0  0  0  0  0  0  0  0  0  0  0
    7.0221  -24.6050   -9.1561 C   0  0  0  0  0  0  0  0  0  0  0  0
   11.9801  -26.8104  -11.3139 N   0  0  0  0  0  0  0  0  0  0  0  0
    6.0572  -28.0669   -8.5091 N   0  0  0  0  0  0  0  0  0  0  0  0
   10.1955  -27.4412   -9.7532 N   0  0  0  0  0  0  0  0  0  0  0  0
   15.3508  -24.8838  -11.2840 O   0  5  0  0  0  0  0  0  0  0  0  0
    9.0570  -26.2809  -11.4161 O   0  0  0  0  0  0  0  0  0  0  0  0
   14.0218  -24.0971  -12.9708 O   0  0  0  0  0  0  0  0  0  0  0  0
    5.9403  -26.6830   -8.4605 O   0  0  0  0  0  0  0  0  0  0  0  0
   12.7039  -28.1528   -9.2266 S   0  0  0  0  0  0  0  0  0  0  0  0
   14.9575  -27.9496  -10.1911 H   0  0  0  0  0  0  0  0  0  0  0  0
    8.2716  -30.0436   -8.6225 H   0  0  0  0  0  0  0  0  0  0  0  0
    6.7650  -30.3784   -9.5109 H   0  0  0  0  0  0  0  0  0  0  0  0
    8.1770  -29.7825  -10.3817 H   0  0  0  0  0  0  0  0  0  0  0  0
    7.7878  -24.4203  -11.2001 H   0  0  0  0  0  0  0  0  0  0  0  0
    6.9381  -22.9880  -10.6049 H   0  0  0  0  0  0  0  0  0  0  0  0
    6.0220  -24.4261  -11.0821 H   0  0  0  0  0  0  0  0  0  0  0  0
    9.1766  -24.3896   -8.9234 H   0  0  0  0  0  0  0  0  0  0  0  0
    8.2778  -24.3760   -7.3979 H   0  0  0  0  0  0  0  0  0  0  0  0
    8.2667  -22.9494   -8.4430 H   0  0  0  0  0  0  0  0  0  0  0  0
   14.9516  -27.0334  -12.8146 H   0  0  0  0  0  0  0  0  0  0  0  0
   13.4404  -26.4141  -13.4533 H   0  0  0  0  0  0  0  0  0  0  0  0
    6.1409  -24.2218   -8.6244 H   0  0  0  0  0  0  0  0  0  0  0  0
   10.0607  -27.9358   -8.8749 H   0  0  0  0  0  0  0  0  0  0  0  0
  1  3  2  0  0  0  0
  1 21  1  0  0  0  0
  2  4  1  0  0  0  0
  2  5  2  0  0  0  0
  2  7  1  0  0  0  0
  3 12  1  0  0  0  0
  3 14  1  0  0  0  0
  4  9  1  0  0  0  0
  4 15  2  0  0  0  0
  5 13  1  0  0  0  0
  5 20  1  0  0  0  0
  6 14  2  0  0  0  0
  6 16  1  0  0  0  0
  6 21  1  0  0  0  0
  7 16  1  0  0  0  0
  7 18  2  0  0  0  0
  8 12  1  0  0  0  0
  8 17  1  0  0  0  0
  8 19  2  0  0  0  0
 10 13  1  0  0  0  0
 11 13  1  0  0  0  0
 15 20  1  0  0  0  0
  1 22  1  0  0  0  0
  9 23  1  0  0  0  0
  9 24  1  0  0  0  0
  9 25  1  0  0  0  0
 10 26  1  0  0  0  0
 10 27  1  0  0  0  0
 10 28  1  0  0  0  0
 11 29  1  0  0  0  0
 11 30  1  0  0  0  0
 11 31  1  0  0  0  0
 12 32  1  0  0  0  0
 12 33  1  0  0  0  0
 13 34  1  0  0  0  0
 16 35  1  0  0  0  0
M  CHG  1  17  -1
M  END
> <Hybrid2>
-2.416794776916504

> <Hybrid2>
-2.322769

$$$$
C37656159
  -OEChem-02152218493D

 36 37  0     1  0  0  0  0  0999 V2000
    5.6511  -28.7068   -8.8464 C   0  0  0  0  0  0  0  0  0  0  0  0
    5.7740  -27.4395   -9.2781 C   0  0  0  0  0  0  0  0  0  0  0  0
    8.0300  -28.9988   -8.6197 C   0  0  0  0  0  0  0  0  0  0  0  0
    6.8026  -29.5350   -8.4990 C   0  0  0  0  0  0  0  0  0  0  0  0
    7.1688  -26.8838   -9.3966 C   0  0  0  0  0  0  0  0  0  0  0  0
   13.3435  -26.6718  -11.8717 C   0  0  0  0  0  0  0  0  0  0  0  0
    9.7943  -27.2269  -13.2022 C   0  0  0  0  0  0  0  0  0  0  0  0
   11.3127  -27.0749  -13.2340 C   0  0  0  0  0  0  0  0  0  0  0  0
    9.1393  -26.0861  -12.4308 C   0  0  0  0  0  0  0  0  0  0  0  0
   11.1834  -25.7957  -11.0631 C   0  0  0  0  0  0  0  0  0  0  0  0
   11.8702  -26.9335  -11.8171 C   0  0  2  0  0  0  0  0  0  0  0  0
    6.5477  -30.9305   -8.0288 C   0  0  0  0  0  0  0  0  0  0  0  0
    7.3114  -25.6715   -9.8096 N   0  0  0  0  0  0  0  0  0  0  0  0
    8.2268  -27.7113   -9.0547 N   0  0  0  0  0  0  0  0  0  0  0  0
    9.7078  -26.0229  -11.0522 N   0  0  1  0  0  0  0  0  0  0  0  0
   13.6816  -25.6166  -12.4762 O   0  5  0  0  0  0  0  0  0  0  0  0
   14.0578  -27.5448  -11.3035 O   0  0  0  0  0  0  0  0  0  0  0  0
    9.4743  -25.2180   -8.6458 O   0  0  0  0  0  0  0  0  0  0  0  0
    8.7393  -23.7198  -10.5085 O   0  0  0  0  0  0  0  0  0  0  0  0
    8.8272  -25.0591   -9.9413 S   0  0  0  0  0  0  0  0  0  0  0  0
    4.6634  -29.1464   -8.7468 H   0  0  0  0  0  0  0  0  0  0  0  0
    4.9249  -26.8206   -9.5378 H   0  0  0  0  0  0  0  0  0  0  0  0
    8.9440  -29.5308   -8.3875 H   0  0  0  0  0  0  0  0  0  0  0  0
    9.4041  -27.2496  -14.2266 H   0  0  0  0  0  0  0  0  0  0  0  0
    9.5298  -28.1838  -12.7391 H   0  0  0  0  0  0  0  0  0  0  0  0
   11.7485  -27.9597  -13.7001 H   0  0  0  0  0  0  0  0  0  0  0  0
   11.5799  -26.2120  -13.8436 H   0  0  0  0  0  0  0  0  0  0  0  0
    9.3407  -25.1434  -12.9525 H   0  0  0  0  0  0  0  0  0  0  0  0
    8.0529  -26.2247  -12.3778 H   0  0  0  0  0  0  0  0  0  0  0  0
   11.5490  -25.7495  -10.0356 H   0  0  0  0  0  0  0  0  0  0  0  0
   11.3951  -24.8456  -11.5574 H   0  0  0  0  0  0  0  0  0  0  0  0
   11.7227  -27.8661  -11.2725 H   0  0  0  0  0  0  0  0  0  0  0  0
    6.5357  -31.6097   -8.8805 H   0  0  0  0  0  0  0  0  0  0  0  0
    5.5869  -30.9775   -7.5166 H   0  0  0  0  0  0  0  0  0  0  0  0
    7.3319  -31.2349   -7.3359 H   0  0  0  0  0  0  0  0  0  0  0  0
    9.1856  -27.3867   -9.1181 H   0  0  0  0  0  0  0  0  0  0  0  0
  1  2  2  0  0  0  0
  1  4  1  0  0  0  0
  2  5  1  0  0  0  0
  3  4  2  0  0  0  0
  3 14  1  0  0  0  0
  4 12  1  0  0  0  0
  5 13  2  0  0  0  0
  5 14  1  0  0  0  0
  6 11  1  0  0  0  0
  6 16  1  0  0  0  0
  6 17  2  0  0  0  0
  7  8  1  0  0  0  0
  7  9  1  0  0  0  0
  8 11  1  0  0  0  0
  9 15  1  0  0  0  0
 10 11  1  0  0  0  0
 10 15  1  0  0  0  0
 13 20  1  0  0  0  0
 15 20  1  0  0  0  0
 18 20  2  0  0  0  0
 19 20  2  0  0  0  0
  1 21  1  0  0  0  0
  2 22  1  0  0  0  0
  3 23  1  0  0  0  0
  7 24  1  0  0  0  0
  7 25  1  0  0  0  0
  8 26  1  0  0  0  0
  8 27  1  0  0  0  0
  9 28  1  0  0  0  0
  9 29  1  0  0  0  0
 10 30  1  0  0  0  0
 10 31  1  0  0  0  0
 11 32  1  0  0  0  0
 12 33  1  0  0  0  0
 12 34  1  0  0  0  0
 12 35  1  0  0  0  0
 14 36  1  0  0  0  0
M  CHG  1  16  -1
M  END
> <Hybrid2>
-5.094672203063965

> <Hybrid2>
-5.094672

$$$$
C37656159
  -OEChem-02152218493D

 36 37  0     1  0  0  0  0  0999 V2000
    5.8208  -28.1851   -9.1703 C   0  0  0  0  0  0  0  0  0  0  0  0
    6.1008  -26.8900   -9.3983 C   0  0  0  0  0  0  0  0  0  0  0  0
    8.1431  -28.8187   -9.1460 C   0  0  0  0  0  0  0  0  0  0  0  0
    6.8591  -29.2029   -9.0356 C   0  0  0  0  0  0  0  0  0  0  0  0
    7.5533  -26.5089   -9.5141 C   0  0  0  0  0  0  0  0  0  0  0  0
   13.5900  -26.6887  -12.3112 C   0  0  0  0  0  0  0  0  0  0  0  0
    9.9463  -26.5436  -13.4848 C   0  0  0  0  0  0  0  0  0  0  0  0
   11.4684  -26.5878  -13.5884 C   0  0  0  0  0  0  0  0  0  0  0  0
    9.4888  -25.4740  -12.4989 C   0  0  0  0  0  0  0  0  0  0  0  0
   11.6080  -25.6877  -11.2354 C   0  0  0  0  0  0  0  0  0  0  0  0
   12.0982  -26.7615  -12.2058 C   0  0  2  0  0  0  0  0  0  0  0  0
    6.4322  -30.6125   -8.7819 C   0  0  0  0  0  0  0  0  0  0  0  0
    7.8460  -25.2734   -9.7339 N   0  0  0  0  0  0  0  0  0  0  0  0
    8.4991  -27.5130   -9.3788 N   0  0  0  0  0  0  0  0  0  0  0  0
   10.1169  -25.7191  -11.1673 N   0  0  1  0  0  0  0  0  0  0  0  0
   14.0464  -25.5997  -12.7574 O   0  5  0  0  0  0  0  0  0  0  0  0
   14.1988  -27.7306  -11.9384 O   0  0  0  0  0  0  0  0  0  0  0  0
   10.0971  -25.3088   -8.6525 O   0  0  0  0  0  0  0  0  0  0  0  0
    9.5015  -23.4347  -10.1977 O   0  0  0  0  0  0  0  0  0  0  0  0
    9.4255  -24.8504   -9.8613 S   0  0  0  0  0  0  0  0  0  0  0  0
    4.7864  -28.5026   -9.0803 H   0  0  0  0  0  0  0  0  0  0  0  0
    5.3361  -26.1309   -9.4998 H   0  0  0  0  0  0  0  0  0  0  0  0
    8.9831  -29.4968   -9.0617 H   0  0  0  0  0  0  0  0  0  0  0  0
    9.5148  -26.3420  -14.4724 H   0  0  0  0  0  0  0  0  0  0  0  0
    9.5705  -27.5222  -13.1666 H   0  0  0  0  0  0  0  0  0  0  0  0
   11.7573  -27.4303  -14.2183 H   0  0  0  0  0  0  0  0  0  0  0  0
   11.8277  -25.6766  -14.0663 H   0  0  0  0  0  0  0  0  0  0  0  0
    9.7977  -24.4912  -12.8730 H   0  0  0  0  0  0  0  0  0  0  0  0
    8.3967  -25.4767  -12.3998 H   0  0  0  0  0  0  0  0  0  0  0  0
   12.0186  -25.8637  -10.2394 H   0  0  0  0  0  0  0  0  0  0  0  0
   11.9293  -24.7036  -11.5821 H   0  0  0  0  0  0  0  0  0  0  0  0
   11.8450  -27.7454  -11.8109 H   0  0  0  0  0  0  0  0  0  0  0  0
    6.2906  -31.1307   -9.7297 H   0  0  0  0  0  0  0  0  0  0  0  0
    5.4962  -30.6197   -8.2239 H   0  0  0  0  0  0  0  0  0  0  0  0
    7.1943  -31.1291   -8.1989 H   0  0  0  0  0  0  0  0  0  0  0  0
    9.4902  -27.3101   -9.4499 H   0  0  0  0  0  0  0  0  0  0  0  0
  1  2  2  0  0  0  0
  1  4  1  0  0  0  0
  2  5  1  0  0  0  0
  3  4  2  0  0  0  0
  3 14  1  0  0  0  0
  4 12  1  0  0  0  0
  5 13  2  0  0  0  0
  5 14  1  0  0  0  0
  6 11  1  0  0  0  0
  6 16  1  0  0  0  0
  6 17  2  0  0  0  0
  7  8  1  0  0  0  0
  7  9  1  0  0  0  0
  8 11  1  0  0  0  0
  9 15  1  0  0  0  0
 10 11  1  0  0  0  0
 10 15  1  0  0  0  0
 13 20  1  0  0  0  0
 15 20  1  0  0  0  0
 18 20  2  0  0  0  0
 19 20  2  0  0  0  0
  1 21  1  0  0  0  0
  2 22  1  0  0  0  0
  3 23  1  0  0  0  0
  7 24  1  0  0  0  0
  7 25  1  0  0  0  0
  8 26  1  0  0  0  0
  8 27  1  0  0  0  0
  9 28  1  0  0  0  0
  9 29  1  0  0  0  0
 10 30  1  0  0  0  0
 10 31  1  0  0  0  0
 11 32  1  0  0  0  0
 12 33  1  0  0  0  0
 12 34  1  0  0  0  0
 12 35  1  0  0  0  0
 14 36  1  0  0  0  0
M  CHG  1  16  -1
M  END
> <Hybrid2>
-5.094672203063965

> <Hybrid2>
-4.260428

$$$$
C37656162
  -OEChem-02152218493D

 36 37  0     0  0  0  0  0  0999 V2000
    4.8429  -27.8140   -8.6120 C   0  0  0  0  0  0  0  0  0  0  0  0
    5.5742  -29.0614   -8.4868 C   0  0  0  0  0  0  0  0  0  0  0  0
    5.4364  -26.7706   -9.2064 C   0  0  0  0  0  0  0  0  0  0  0  0
    6.8330  -29.2260   -8.9430 C   0  0  0  0  0  0  0  0  0  0  0  0
    7.4680  -28.0144   -9.6116 C   0  0  0  0  0  0  0  0  0  0  0  0
   14.5372  -26.2729  -11.2502 C   0  0  0  0  0  0  0  0  0  0  0  0
   13.0856  -28.2753  -10.8038 C   0  0  0  0  0  0  0  0  0  0  0  0
   12.7769  -26.8557  -12.8803 C   0  0  0  0  0  0  0  0  0  0  0  0
   11.8503  -27.6084  -10.2018 C   0  0  0  0  0  0  0  0  0  0  0  0
   11.5634  -26.2095  -12.2166 C   0  0  0  0  0  0  0  0  0  0  0  0
   13.7694  -27.4284  -11.8718 C   0  0  0  0  0  0  0  0  0  0  0  0
    7.6125  -30.4942   -8.8330 C   0  0  0  0  0  0  0  0  0  0  0  0
    8.6699  -28.1012  -10.0682 N   0  0  0  0  0  0  0  0  0  0  0  0
    6.7131  -26.8517   -9.6984 N   0  0  0  0  0  0  0  0  0  0  0  0
   10.9234  -27.1868  -11.2905 N   0  0  0  0  0  0  0  0  0  0  0  0
   14.9851  -26.4857  -10.0895 O   0  5  0  0  0  0  0  0  0  0  0  0
   14.6283  -25.2449  -11.9783 O   0  0  0  0  0  0  0  0  0  0  0  0
    9.4709  -25.7553   -9.7633 O   0  0  0  0  0  0  0  0  0  0  0  0
    8.5690  -26.4708  -11.9835 O   0  0  0  0  0  0  0  0  0  0  0  0
    9.3356  -26.7848  -10.7849 S   0  0  0  0  0  0  0  0  0  0  0  0
    3.8338  -27.7536   -8.2234 H   0  0  0  0  0  0  0  0  0  0  0  0
    5.0514  -29.8786   -7.9987 H   0  0  0  0  0  0  0  0  0  0  0  0
    4.9578  -25.8091   -9.3376 H   0  0  0  0  0  0  0  0  0  0  0  0
   13.7861  -28.5298   -9.9991 H   0  0  0  0  0  0  0  0  0  0  0  0
   12.7777  -29.2239  -11.2634 H   0  0  0  0  0  0  0  0  0  0  0  0
   12.4314  -27.6708  -13.5294 H   0  0  0  0  0  0  0  0  0  0  0  0
   13.2694  -26.1202  -13.5274 H   0  0  0  0  0  0  0  0  0  0  0  0
   11.3435  -28.3268   -9.5480 H   0  0  0  0  0  0  0  0  0  0  0  0
   12.1322  -26.7375   -9.5991 H   0  0  0  0  0  0  0  0  0  0  0  0
   11.8446  -25.3055  -11.6657 H   0  0  0  0  0  0  0  0  0  0  0  0
   10.8474  -25.9237  -12.9953 H   0  0  0  0  0  0  0  0  0  0  0  0
   14.5116  -28.0307  -12.4092 H   0  0  0  0  0  0  0  0  0  0  0  0
    7.4372  -31.1139   -9.7125 H   0  0  0  0  0  0  0  0  0  0  0  0
    7.3058  -31.0417   -7.9412 H   0  0  0  0  0  0  0  0  0  0  0  0
    8.6768  -30.2694   -8.7583 H   0  0  0  0  0  0  0  0  0  0  0  0
    7.0930  -26.0175  -10.1327 H   0  0  0  0  0  0  0  0  0  0  0  0
  1  2  1  0  0  0  0
  1  3  2  0  0  0  0
  2  4  2  0  0  0  0
  3 14  1  0  0  0  0
  4  5  1  0  0  0  0
  4 12  1  0  0  0  0
  5 13  2  0  0  0  0
  5 14  1  0  0  0  0
  6 11  1  0  0  0  0
  6 16  1  0  0  0  0
  6 17  2  0  0  0  0
  7  9  1  0  0  0  0
  7 11  1  0  0  0  0
  8 10  1  0  0  0  0
  8 11  1  0  0  0  0
  9 15  1  0  0  0  0
 10 15  1  0  0  0  0
 13 20  1  0  0  0  0
 15 20  1  0  0  0  0
 18 20  2  0  0  0  0
 19 20  2  0  0  0  0
  1 21  1  0  0  0  0
  2 22  1  0  0  0  0
  3 23  1  0  0  0  0
  7 24  1  0  0  0  0
  7 25  1  0  0  0  0
  8 26  1  0  0  0  0
  8 27  1  0  0  0  0
  9 28  1  0  0  0  0
  9 29  1  0  0  0  0
 10 30  1  0  0  0  0
 10 31  1  0  0  0  0
 11 32  1  0  0  0  0
 12 33  1  0  0  0  0
 12 34  1  0  0  0  0
 12 35  1  0  0  0  0
 14 36  1  0  0  0  0
M  CHG  1  16  -1
M  END
> <Hybrid2>
-2.753469944000244

> <Hybrid2>
-2.753470

$$$$
C37656162
  -OEChem-02152218493D

 36 37  0     0  0  0  0  0  0999 V2000
    5.0089  -26.9938   -8.9455 C   0  0  0  0  0  0  0  0  0  0  0  0
    5.7233  -28.2443   -8.7669 C   0  0  0  0  0  0  0  0  0  0  0  0
    5.6173  -25.9837   -9.5810 C   0  0  0  0  0  0  0  0  0  0  0  0
    6.9808  -28.4442   -9.2124 C   0  0  0  0  0  0  0  0  0  0  0  0
    7.6333  -27.2697   -9.9289 C   0  0  0  0  0  0  0  0  0  0  0  0
   14.7284  -25.6902  -11.6189 C   0  0  0  0  0  0  0  0  0  0  0  0
   13.2495  -27.6532  -11.0940 C   0  0  0  0  0  0  0  0  0  0  0  0
   12.9641  -26.3168  -13.2283 C   0  0  0  0  0  0  0  0  0  0  0  0
   12.0218  -26.9459  -10.5234 C   0  0  0  0  0  0  0  0  0  0  0  0
   11.7577  -25.6279  -12.5951 C   0  0  0  0  0  0  0  0  0  0  0  0
   13.9467  -26.8603  -12.1942 C   0  0  0  0  0  0  0  0  0  0  0  0
    7.7433  -29.7169   -9.0480 C   0  0  0  0  0  0  0  0  0  0  0  0
    8.8349  -27.3910  -10.3783 N   0  0  0  0  0  0  0  0  0  0  0  0
    6.8939  -26.1018  -10.0658 N   0  0  0  0  0  0  0  0  0  0  0  0
   11.1029  -26.5576  -11.6312 N   0  0  0  0  0  0  0  0  0  0  0  0
   15.1708  -25.8606  -10.4491 O   0  5  0  0  0  0  0  0  0  0  0  0
   14.8346  -24.6945  -12.3886 O   0  0  0  0  0  0  0  0  0  0  0  0
    9.6661  -25.0452  -10.1684 O   0  0  0  0  0  0  0  0  0  0  0  0
    8.7597  -25.8401  -12.3595 O   0  0  0  0  0  0  0  0  0  0  0  0
    9.5195  -26.1143  -11.1469 S   0  0  0  0  0  0  0  0  0  0  0  0
    3.9998  -26.9041   -8.5625 H   0  0  0  0  0  0  0  0  0  0  0  0
    5.1888  -29.0338   -8.2469 H   0  0  0  0  0  0  0  0  0  0  0  0
    5.1517  -25.0222   -9.7532 H   0  0  0  0  0  0  0  0  0  0  0  0
   13.9448  -27.8833  -10.2776 H   0  0  0  0  0  0  0  0  0  0  0  0
   12.9301  -28.6159  -11.5148 H   0  0  0  0  0  0  0  0  0  0  0  0
   12.6093  -27.1535  -13.8440 H   0  0  0  0  0  0  0  0  0  0  0  0
   13.4676  -25.6152  -13.9039 H   0  0  0  0  0  0  0  0  0  0  0  0
   11.5041  -27.6299   -9.8419 H   0  0  0  0  0  0  0  0  0  0  0  0
   12.3138  -26.0545   -9.9565 H   0  0  0  0  0  0  0  0  0  0  0  0
   12.0496  -24.7056  -12.0813 H   0  0  0  0  0  0  0  0  0  0  0  0
   11.0473  -25.3652  -13.3869 H   0  0  0  0  0  0  0  0  0  0  0  0
   14.6821  -27.4939  -12.7042 H   0  0  0  0  0  0  0  0  0  0  0  0
    7.5618  -30.3701   -9.9016 H   0  0  0  0  0  0  0  0  0  0  0  0
    7.4275  -30.2229   -8.1352 H   0  0  0  0  0  0  0  0  0  0  0  0
    8.8103  -29.5031   -8.9798 H   0  0  0  0  0  0  0  0  0  0  0  0
    7.2857  -25.2914  -10.5331 H   0  0  0  0  0  0  0  0  0  0  0  0
  1  2  1  0  0  0  0
  1  3  2  0  0  0  0
  2  4  2  0  0  0  0
  3 14  1  0  0  0  0
  4  5  1  0  0  0  0
  4 12  1  0  0  0  0
  5 13  2  0  0  0  0
  5 14  1  0  0  0  0
  6 11  1  0  0  0  0
  6 16  1  0  0  0  0
  6 17  2  0  0  0  0
  7  9  1  0  0  0  0
  7 11  1  0  0  0  0
  8 10  1  0  0  0  0
  8 11  1  0  0  0  0
  9 15  1  0  0  0  0
 10 15  1  0  0  0  0
 13 20  1  0  0  0  0
 15 20  1  0  0  0  0
 18 20  2  0  0  0  0
 19 20  2  0  0  0  0
  1 21  1  0  0  0  0
  2 22  1  0  0  0  0
  3 23  1  0  0  0  0
  7 24  1  0  0  0  0
  7 25  1  0  0  0  0
  8 26  1  0  0  0  0
  8 27  1  0  0  0  0
  9 28  1  0  0  0  0
  9 29  1  0  0  0  0
 10 30  1  0  0  0  0
 10 31  1  0  0  0  0
 11 32  1  0  0  0  0
 12 33  1  0  0  0  0
 12 34  1  0  0  0  0
 12 35  1  0  0  0  0
 14 36  1  0  0  0  0
M  CHG  1  16  -1
M  END
> <Hybrid2>
-2.753469944000244

> <Hybrid2>
-2.600480

$$$$
C37656163
  -OEChem-02152218493D

 36 37  0     1  0  0  0  0  0999 V2000
    4.7092  -27.6660   -8.9166 C   0  0  0  0  0  0  0  0  0  0  0  0
    5.4554  -28.8994   -9.0848 C   0  0  0  0  0  0  0  0  0  0  0  0
    5.3307  -26.4979   -9.1251 C   0  0  0  0  0  0  0  0  0  0  0  0
    6.7553  -28.9305   -9.4441 C   0  0  0  0  0  0  0  0  0  0  0  0
    7.4211  -27.5801   -9.6709 C   0  0  0  0  0  0  0  0  0  0  0  0
   13.0539  -25.2751  -12.7376 C   0  0  0  0  0  0  0  0  0  0  0  0
   13.3036  -26.8402  -10.0219 C   0  0  0  0  0  0  0  0  0  0  0  0
   13.6256  -27.3153  -11.4379 C   0  0  0  0  0  0  0  0  0  0  0  0
   11.8299  -27.0372   -9.6911 C   0  0  0  0  0  0  0  0  0  0  0  0
   11.2145  -26.8302  -12.0825 C   0  0  0  0  0  0  0  0  0  0  0  0
   12.6850  -26.7083  -12.4811 C   0  0  1  0  0  0  0  0  0  0  0  0
    7.5514  -30.1797   -9.6281 C   0  0  0  0  0  0  0  0  0  0  0  0
    8.6625  -27.5363  -10.0138 N   0  0  0  0  0  0  0  0  0  0  0  0
    6.6498  -26.4387   -9.4928 N   0  0  0  0  0  0  0  0  0  0  0  0
   10.9981  -26.3162  -10.6958 N   0  0  1  0  0  0  0  0  0  0  0  0
   14.2657  -24.9859  -12.5351 O   0  5  0  0  0  0  0  0  0  0  0  0
   12.0996  -24.5435  -13.1238 O   0  0  0  0  0  0  0  0  0  0  0  0
    9.3730  -25.3813   -8.9703 O   0  0  0  0  0  0  0  0  0  0  0  0
    8.7025  -25.4220  -11.3793 O   0  0  0  0  0  0  0  0  0  0  0  0
    9.3607  -26.0716  -10.2532 S   0  0  0  0  0  0  0  0  0  0  0  0
    3.6667  -27.7161   -8.6273 H   0  0  0  0  0  0  0  0  0  0  0  0
    4.9089  -29.8205   -8.9057 H   0  0  0  0  0  0  0  0  0  0  0  0
    4.8435  -25.5374   -9.0203 H   0  0  0  0  0  0  0  0  0  0  0  0
   13.9201  -27.3898   -9.3017 H   0  0  0  0  0  0  0  0  0  0  0  0
   13.5656  -25.7798   -9.9211 H   0  0  0  0  0  0  0  0  0  0  0  0
   14.6697  -27.0753  -11.6724 H   0  0  0  0  0  0  0  0  0  0  0  0
   13.5348  -28.4083  -11.4735 H   0  0  0  0  0  0  0  0  0  0  0  0
   11.5697  -28.1017   -9.6892 H   0  0  0  0  0  0  0  0  0  0  0  0
   11.6322  -26.6314   -8.6931 H   0  0  0  0  0  0  0  0  0  0  0  0
   10.5956  -26.2505  -12.7774 H   0  0  0  0  0  0  0  0  0  0  0  0
   10.8957  -27.8785  -12.1317 H   0  0  0  0  0  0  0  0  0  0  0  0
   12.8347  -27.2455  -13.4405 H   0  0  0  0  0  0  0  0  0  0  0  0
    7.4751  -30.5185  -10.6614 H   0  0  0  0  0  0  0  0  0  0  0  0
    7.1752  -30.9599   -8.9657 H   0  0  0  0  0  0  0  0  0  0  0  0
    8.5982  -29.9903   -9.3886 H   0  0  0  0  0  0  0  0  0  0  0  0
    7.0487  -25.5163   -9.6296 H   0  0  0  0  0  0  0  0  0  0  0  0
  1  2  1  0  0  0  0
  1  3  2  0  0  0  0
  2  4  2  0  0  0  0
  3 14  1  0  0  0  0
  4  5  1  0  0  0  0
  4 12  1  0  0  0  0
  5 13  2  0  0  0  0
  5 14  1  0  0  0  0
  6 11  1  0  0  0  0
  6 16  1  0  0  0  0
  6 17  2  0  0  0  0
  7  8  1  0  0  0  0
  7  9  1  0  0  0  0
  8 11  1  0  0  0  0
  9 15  1  0  0  0  0
 10 11  1  0  0  0  0
 10 15  1  0  0  0  0
 13 20  1  0  0  0  0
 15 20  1  0  0  0  0
 18 20  2  0  0  0  0
 19 20  2  0  0  0  0
  1 21  1  0  0  0  0
  2 22  1  0  0  0  0
  3 23  1  0  0  0  0
  7 24  1  0  0  0  0
  7 25  1  0  0  0  0
  8 26  1  0  0  0  0
  8 27  1  0  0  0  0
  9 28  1  0  0  0  0
  9 29  1  0  0  0  0
 10 30  1  0  0  0  0
 10 31  1  0  0  0  0
 11 32  1  0  0  0  0
 12 33  1  0  0  0  0
 12 34  1  0  0  0  0
 12 35  1  0  0  0  0
 14 36  1  0  0  0  0
M  CHG  1  16  -1
M  END
> <Hybrid2>
-5.3043060302734375

> <Hybrid2>
-5.304306

$$$$
C37656163
  -OEChem-02152218493D

 36 37  0     1  0  0  0  0  0999 V2000
    5.4437  -27.9366   -8.5238 C   0  0  0  0  0  0  0  0  0  0  0  0
    6.0730  -29.2032   -8.8492 C   0  0  0  0  0  0  0  0  0  0  0  0
    6.1091  -26.7998   -8.7675 C   0  0  0  0  0  0  0  0  0  0  0  0
    7.3053  -29.2959   -9.3901 C   0  0  0  0  0  0  0  0  0  0  0  0
    8.0245  -27.9792   -9.6502 C   0  0  0  0  0  0  0  0  0  0  0  0
   13.3231  -25.8695  -13.3810 C   0  0  0  0  0  0  0  0  0  0  0  0
   13.8384  -27.5875  -10.7985 C   0  0  0  0  0  0  0  0  0  0  0  0
   13.9278  -28.0066  -12.2651 C   0  0  0  0  0  0  0  0  0  0  0  0
   12.4148  -27.7100  -10.2712 C   0  0  0  0  0  0  0  0  0  0  0  0
   11.4897  -27.3400  -12.5400 C   0  0  0  0  0  0  0  0  0  0  0  0
   12.8958  -27.2886  -13.1372 C   0  0  1  0  0  0  0  0  0  0  0  0
    7.9806  -30.5805   -9.7389 C   0  0  0  0  0  0  0  0  0  0  0  0
    9.2064  -27.9944  -10.1633 N   0  0  0  0  0  0  0  0  0  0  0  0
    7.3655  -26.8032   -9.3154 N   0  0  0  0  0  0  0  0  0  0  0  0
   11.5033  -26.8871  -11.1157 N   0  0  1  0  0  0  0  0  0  0  0  0
   13.4048  -25.1464  -12.3497 O   0  5  0  0  0  0  0  0  0  0  0  0
   13.5458  -25.5839  -14.5910 O   0  0  0  0  0  0  0  0  0  0  0  0
   10.2009  -25.9453   -9.1386 O   0  0  0  0  0  0  0  0  0  0  0  0
    9.2020  -25.8178  -11.4278 O   0  0  0  0  0  0  0  0  0  0  0  0
    9.9636  -26.5652  -10.4354 S   0  0  0  0  0  0  0  0  0  0  0  0
    4.4504  -27.9372   -8.0922 H   0  0  0  0  0  0  0  0  0  0  0  0
    5.4945  -30.0969   -8.6346 H   0  0  0  0  0  0  0  0  0  0  0  0
    5.7082  -25.8179   -8.5532 H   0  0  0  0  0  0  0  0  0  0  0  0
   14.5096  -28.2113  -10.1974 H   0  0  0  0  0  0  0  0  0  0  0  0
   14.1841  -26.5522  -10.6900 H   0  0  0  0  0  0  0  0  0  0  0  0
   14.9434  -27.8197  -12.6345 H   0  0  0  0  0  0  0  0  0  0  0  0
   13.7581  -29.0885  -12.3347 H   0  0  0  0  0  0  0  0  0  0  0  0
   12.0849  -28.7550  -10.2785 H   0  0  0  0  0  0  0  0  0  0  0  0
   12.3855  -27.3457   -9.2386 H   0  0  0  0  0  0  0  0  0  0  0  0
   10.8218  -26.6874  -13.1145 H   0  0  0  0  0  0  0  0  0  0  0  0
   11.0960  -28.3625  -12.5889 H   0  0  0  0  0  0  0  0  0  0  0  0
   12.8738  -27.7829  -14.1305 H   0  0  0  0  0  0  0  0  0  0  0  0
    7.7389  -30.8592  -10.7647 H   0  0  0  0  0  0  0  0  0  0  0  0
    7.6471  -31.3697   -9.0644 H   0  0  0  0  0  0  0  0  0  0  0  0
    9.0610  -30.4692   -9.6421 H   0  0  0  0  0  0  0  0  0  0  0  0
    7.8039  -25.9014   -9.4672 H   0  0  0  0  0  0  0  0  0  0  0  0
  1  2  1  0  0  0  0
  1  3  2  0  0  0  0
  2  4  2  0  0  0  0
  3 14  1  0  0  0  0
  4  5  1  0  0  0  0
  4 12  1  0  0  0  0
  5 13  2  0  0  0  0
  5 14  1  0  0  0  0
  6 11  1  0  0  0  0
  6 16  1  0  0  0  0
  6 17  2  0  0  0  0
  7  8  1  0  0  0  0
  7  9  1  0  0  0  0
  8 11  1  0  0  0  0
  9 15  1  0  0  0  0
 10 11  1  0  0  0  0
 10 15  1  0  0  0  0
 13 20  1  0  0  0  0
 15 20  1  0  0  0  0
 18 20  2  0  0  0  0
 19 20  2  0  0  0  0
  1 21  1  0  0  0  0
  2 22  1  0  0  0  0
  3 23  1  0  0  0  0
  7 24  1  0  0  0  0
  7 25  1  0  0  0  0
  8 26  1  0  0  0  0
  8 27  1  0  0  0  0
  9 28  1  0  0  0  0
  9 29  1  0  0  0  0
 10 30  1  0  0  0  0
 10 31  1  0  0  0  0
 11 32  1  0  0  0  0
 12 33  1  0  0  0  0
 12 34  1  0  0  0  0
 12 35  1  0  0  0  0
 14 36  1  0  0  0  0
M  CHG  1  16  -1
M  END
> <Hybrid2>
-5.3043060302734375

> <Hybrid2>
-4.182668

$$$$
C37792285
  -OEChem-02152218493D

 30 32  0     1  0  0  0  0  0999 V2000
   11.0023  -25.9828  -11.7822 C   0  0  0  0  0  0  0  0  0  0  0  0
   11.1390  -27.2676   -9.7408 C   0  0  0  0  0  0  0  0  0  0  0  0
    9.6642  -25.6962  -11.5123 C   0  0  0  0  0  0  0  0  0  0  0  0
    9.8008  -26.9810   -9.4708 C   0  0  0  0  0  0  0  0  0  0  0  0
   15.0063  -27.9230  -10.8072 C   0  0  0  0  0  0  0  0  0  0  0  0
   11.7397  -26.7686  -10.8965 C   0  0  0  0  0  0  0  0  0  0  0  0
    9.0635  -26.1953  -10.3566 C   0  0  0  0  0  0  0  0  0  0  0  0
   13.1235  -27.0654  -11.1756 C   0  0  0  0  0  0  0  0  0  0  0  0
    6.9577  -26.3163   -8.9871 C   0  0  0  0  0  0  0  0  0  0  0  0
    4.6318  -28.1734   -8.9077 C   0  0  0  0  0  0  0  0  0  0  0  0
    4.7692  -26.0682  -10.3006 C   0  0  0  0  0  0  0  0  0  0  0  0
    5.5827  -25.8071   -9.0642 C   0  0  1  0  0  0  0  0  0  0  0  0
    4.3984  -26.7458   -9.0076 C   0  0  2  0  0  0  0  0  0  0  0  0
   15.1228  -27.2739  -11.9420 N   0  0  0  0  0  0  0  0  0  0  0  0
   13.8842  -26.7096  -12.1843 N   0  0  0  0  0  0  0  0  0  0  0  0
    7.7059  -25.9046  -10.0827 N   0  0  0  0  0  0  0  0  0  0  0  0
    5.3300  -28.5378   -7.9214 O   0  5  0  0  0  0  0  0  0  0  0  0
    7.3195  -27.0073   -8.0403 O   0  0  0  0  0  0  0  0  0  0  0  0
    4.1028  -28.8619   -9.8250 O   0  0  0  0  0  0  0  0  0  0  0  0
   13.7643  -27.8385  -10.2567 O   0  0  0  0  0  0  0  0  0  0  0  0
   11.4567  -25.5867  -12.6874 H   0  0  0  0  0  0  0  0  0  0  0  0
   11.7007  -27.8815   -9.0406 H   0  0  0  0  0  0  0  0  0  0  0  0
    9.0988  -25.0834  -12.2097 H   0  0  0  0  0  0  0  0  0  0  0  0
    9.3437  -27.3760   -8.5670 H   0  0  0  0  0  0  0  0  0  0  0  0
   15.7459  -28.4973  -10.2717 H   0  0  0  0  0  0  0  0  0  0  0  0
    4.1233  -25.2733  -10.6552 H   0  0  0  0  0  0  0  0  0  0  0  0
    5.2082  -26.6630  -11.0933 H   0  0  0  0  0  0  0  0  0  0  0  0
    5.4462  -24.8371   -8.5956 H   0  0  0  0  0  0  0  0  0  0  0  0
    3.5167  -26.3498   -8.5091 H   0  0  0  0  0  0  0  0  0  0  0  0
    7.2357  -25.3258  -10.7756 H   0  0  0  0  0  0  0  0  0  0  0  0
  1  3  1  0  0  0  0
  1  6  2  0  0  0  0
  2  4  2  0  0  0  0
  2  6  1  0  0  0  0
  3  7  2  0  0  0  0
  4  7  1  0  0  0  0
  5 14  2  0  0  0  0
  5 20  1  0  0  0  0
  6  8  1  0  0  0  0
  7 16  1  0  0  0  0
  8 15  2  0  0  0  0
  8 20  1  0  0  0  0
  9 12  1  0  0  0  0
  9 16  1  0  0  0  0
  9 18  2  0  0  0  0
 10 13  1  0  0  0  0
 10 17  1  0  0  0  0
 10 19  2  0  0  0  0
 11 12  1  0  0  0  0
 11 13  1  0  0  0  0
 12 13  1  0  0  0  0
 14 15  1  0  0  0  0
  1 21  1  0  0  0  0
  2 22  1  0  0  0  0
  3 23  1  0  0  0  0
  4 24  1  0  0  0  0
  5 25  1  0  0  0  0
 11 26  1  0  0  0  0
 11 27  1  0  0  0  0
 12 28  1  0  0  0  0
 13 29  1  0  0  0  0
 16 30  1  0  0  0  0
M  CHG  1  17  -1
M  END
> <Hybrid2>
-1.510262131690979

> <Hybrid2>
-1.510262

$$$$
C37792285
  -OEChem-02152218493D

 30 32  0     1  0  0  0  0  0999 V2000
   10.7461  -26.6921  -11.9238 C   0  0  0  0  0  0  0  0  0  0  0  0
   11.0010  -27.4561   -9.6460 C   0  0  0  0  0  0  0  0  0  0  0  0
    9.3918  -26.4523  -11.6919 C   0  0  0  0  0  0  0  0  0  0  0  0
    9.6466  -27.2162   -9.4140 C   0  0  0  0  0  0  0  0  0  0  0  0
   14.8991  -28.0476  -10.6347 C   0  0  0  0  0  0  0  0  0  0  0  0
   11.5507  -27.1940  -10.9009 C   0  0  0  0  0  0  0  0  0  0  0  0
    8.8420  -26.7143  -10.4370 C   0  0  0  0  0  0  0  0  0  0  0  0
   12.9514  -27.4424  -11.1407 C   0  0  0  0  0  0  0  0  0  0  0  0
    6.7638  -26.6733   -9.0214 C   0  0  0  0  0  0  0  0  0  0  0  0
    4.5931  -28.6312   -8.4560 C   0  0  0  0  0  0  0  0  0  0  0  0
    4.5518  -26.9010  -10.2987 C   0  0  0  0  0  0  0  0  0  0  0  0
    5.3522  -26.3007   -9.1772 C   0  0  1  0  0  0  0  0  0  0  0  0
    4.2466  -27.2872   -8.8751 C   0  0  2  0  0  0  0  0  0  0  0  0
   14.9544  -27.6717  -11.8910 N   0  0  0  0  0  0  0  0  0  0  0  0
   13.6731  -27.2734  -12.2238 N   0  0  0  0  0  0  0  0  0  0  0  0
    7.4680  -26.4710  -10.2016 N   0  0  0  0  0  0  0  0  0  0  0  0
    5.3261  -28.7041   -7.4310 O   0  5  0  0  0  0  0  0  0  0  0  0
    7.1870  -27.0975   -7.9510 O   0  0  0  0  0  0  0  0  0  0  0  0
    4.1128  -29.5510   -9.1761 O   0  0  0  0  0  0  0  0  0  0  0  0
   13.6589  -27.9317  -10.0858 O   0  0  0  0  0  0  0  0  0  0  0  0
   11.1602  -26.4830  -12.9074 H   0  0  0  0  0  0  0  0  0  0  0  0
   11.6153  -27.8473   -8.8385 H   0  0  0  0  0  0  0  0  0  0  0  0
    8.7738  -26.0617  -12.4964 H   0  0  0  0  0  0  0  0  0  0  0  0
    9.2296  -27.4247   -8.4319 H   0  0  0  0  0  0  0  0  0  0  0  0
   15.6863  -28.4252  -10.0012 H   0  0  0  0  0  0  0  0  0  0  0  0
    3.8420  -26.2605  -10.8093 H   0  0  0  0  0  0  0  0  0  0  0  0
    5.0299  -27.6283  -10.9447 H   0  0  0  0  0  0  0  0  0  0  0  0
    5.1432  -25.2617   -8.9407 H   0  0  0  0  0  0  0  0  0  0  0  0
    3.3404  -26.8540   -8.4580 H   0  0  0  0  0  0  0  0  0  0  0  0
    6.9477  -26.1053  -10.9963 H   0  0  0  0  0  0  0  0  0  0  0  0
  1  3  1  0  0  0  0
  1  6  2  0  0  0  0
  2  4  2  0  0  0  0
  2  6  1  0  0  0  0
  3  7  2  0  0  0  0
  4  7  1  0  0  0  0
  5 14  2  0  0  0  0
  5 20  1  0  0  0  0
  6  8  1  0  0  0  0
  7 16  1  0  0  0  0
  8 15  2  0  0  0  0
  8 20  1  0  0  0  0
  9 12  1  0  0  0  0
  9 16  1  0  0  0  0
  9 18  2  0  0  0  0
 10 13  1  0  0  0  0
 10 17  1  0  0  0  0
 10 19  2  0  0  0  0
 11 12  1  0  0  0  0
 11 13  1  0  0  0  0
 12 13  1  0  0  0  0
 14 15  1  0  0  0  0
  1 21  1  0  0  0  0
  2 22  1  0  0  0  0
  3 23  1  0  0  0  0
  4 24  1  0  0  0  0
  5 25  1  0  0  0  0
 11 26  1  0  0  0  0
 11 27  1  0  0  0  0
 12 28  1  0  0  0  0
 13 29  1  0  0  0  0
 16 30  1  0  0  0  0
M  CHG  1  17  -1
M  END
> <Hybrid2>
-1.510262131690979

> <Hybrid2>
-1.163916

$$$$
C37794369
  -OEChem-02152218493D

 31 33  0     1  0  0  0  0  0999 V2000
    8.4737  -26.1523   -9.9427 C   0  0  0  0  0  0  0  0  0  0  0  0
    7.3517  -26.6187   -9.2668 C   0  0  0  0  0  0  0  0  0  0  0  0
    4.4775  -29.7645   -7.7338 C   0  0  0  0  0  0  0  0  0  0  0  0
    4.2425  -28.4068   -7.4452 C   0  0  0  0  0  0  0  0  0  0  0  0
    9.0015  -28.4007  -10.5110 C   0  0  0  0  0  0  0  0  0  0  0  0
    5.6322  -29.7626   -8.4775 C   0  0  0  0  0  0  0  0  0  0  0  0
    9.3195  -27.0538  -10.5793 C   0  0  0  0  0  0  0  0  0  0  0  0
    7.1217  -27.9850   -9.2575 C   0  0  0  0  0  0  0  0  0  0  0  0
   11.3991  -27.3864  -11.9537 C   0  0  0  0  0  0  0  0  0  0  0  0
   14.2341  -27.6612  -11.0903 C   0  0  0  0  0  0  0  0  0  0  0  0
   13.4730  -27.1905  -13.4527 C   0  0  0  0  0  0  0  0  0  0  0  0
   12.4524  -26.5530  -12.5467 C   0  0  2  0  0  0  0  0  0  0  0  0
   13.8923  -26.6807  -12.1024 C   0  0  1  0  0  0  0  0  0  0  0  0
    7.9206  -28.8912   -9.8642 N   0  0  0  0  0  0  0  0  0  0  0  0
    5.1734  -27.6010   -7.9631 N   0  0  0  0  0  0  0  0  0  0  0  0
    6.0045  -28.4549   -8.5846 N   0  0  0  0  0  0  0  0  0  0  0  0
   10.4692  -26.6096  -11.2745 N   0  0  0  0  0  0  0  0  0  0  0  0
   15.1177  -28.4975  -11.4265 O   0  5  0  0  0  0  0  0  0  0  0  0
   11.4110  -28.6054  -12.0907 O   0  0  0  0  0  0  0  0  0  0  0  0
   13.5990  -27.5454  -10.0048 O   0  0  0  0  0  0  0  0  0  0  0  0
    8.6796  -25.0855   -9.9680 H   0  0  0  0  0  0  0  0  0  0  0  0
    6.6870  -25.9199   -8.7687 H   0  0  0  0  0  0  0  0  0  0  0  0
    3.8923  -30.6244   -7.4431 H   0  0  0  0  0  0  0  0  0  0  0  0
    3.4320  -27.9705   -6.8790 H   0  0  0  0  0  0  0  0  0  0  0  0
    9.6233  -29.1526  -10.9882 H   0  0  0  0  0  0  0  0  0  0  0  0
    6.2021  -30.5667   -8.9241 H   0  0  0  0  0  0  0  0  0  0  0  0
   13.4241  -28.2612  -13.6141 H   0  0  0  0  0  0  0  0  0  0  0  0
   13.7914  -26.6297  -14.3239 H   0  0  0  0  0  0  0  0  0  0  0  0
   12.1231  -25.5554  -12.8211 H   0  0  0  0  0  0  0  0  0  0  0  0
   14.4628  -25.7548  -12.1097 H   0  0  0  0  0  0  0  0  0  0  0  0
   10.6201  -25.6029  -11.2690 H   0  0  0  0  0  0  0  0  0  0  0  0
  1  2  2  0  0  0  0
  1  7  1  0  0  0  0
  2  8  1  0  0  0  0
  3  4  1  0  0  0  0
  3  6  2  0  0  0  0
  4 15  2  0  0  0  0
  5  7  2  0  0  0  0
  5 14  1  0  0  0  0
  6 16  1  0  0  0  0
  7 17  1  0  0  0  0
  8 14  2  0  0  0  0
  8 16  1  0  0  0  0
  9 12  1  0  0  0  0
  9 17  1  0  0  0  0
  9 19  2  0  0  0  0
 10 13  1  0  0  0  0
 10 18  1  0  0  0  0
 10 20  2  0  0  0  0
 11 12  1  0  0  0  0
 11 13  1  0  0  0  0
 12 13  1  0  0  0  0
 15 16  1  0  0  0  0
  1 21  1  0  0  0  0
  2 22  1  0  0  0  0
  3 23  1  0  0  0  0
  4 24  1  0  0  0  0
  5 25  1  0  0  0  0
  6 26  1  0  0  0  0
 11 27  1  0  0  0  0
 11 28  1  0  0  0  0
 12 29  1  0  0  0  0
 13 30  1  0  0  0  0
 17 31  1  0  0  0  0
M  CHG  1  18  -1
M  END
> <Hybrid2>
-0.901384174823761

> <Hybrid2>
-0.901384

$$$$
C37794369
  -OEChem-02152218493D

 31 33  0     1  0  0  0  0  0999 V2000
   10.2132  -27.1956  -11.8232 C   0  0  0  0  0  0  0  0  0  0  0  0
   11.5766  -27.4657  -11.7835 C   0  0  0  0  0  0  0  0  0  0  0  0
   15.6572  -28.0051  -11.1327 C   0  0  0  0  0  0  0  0  0  0  0  0
   15.6103  -27.3580   -9.8834 C   0  0  0  0  0  0  0  0  0  0  0  0
   10.4110  -26.1518   -9.6953 C   0  0  0  0  0  0  0  0  0  0  0  0
   14.3631  -27.9618  -11.5907 C   0  0  0  0  0  0  0  0  0  0  0  0
    9.6116  -26.5265  -10.7632 C   0  0  0  0  0  0  0  0  0  0  0  0
   12.2881  -27.0488  -10.6700 C   0  0  0  0  0  0  0  0  0  0  0  0
    7.4917  -25.5809   -9.7957 C   0  0  0  0  0  0  0  0  0  0  0  0
    5.3705  -26.9086   -8.1844 C   0  0  0  0  0  0  0  0  0  0  0  0
    5.1427  -24.6634   -9.3198 C   0  0  0  0  0  0  0  0  0  0  0  0
    6.0777  -25.4756  -10.1769 C   0  0  2  0  0  0  0  0  0  0  0  0
    4.9978  -26.1585   -9.3681 C   0  0  1  0  0  0  0  0  0  0  0  0
   11.7385  -26.3966   -9.6211 N   0  0  0  0  0  0  0  0  0  0  0  0
   14.3835  -26.9344   -9.5679 N   0  0  0  0  0  0  0  0  0  0  0  0
   13.6476  -27.3162  -10.6256 N   0  0  0  0  0  0  0  0  0  0  0  0
    8.2263  -26.2380  -10.7746 N   0  0  0  0  0  0  0  0  0  0  0  0
    4.8032  -26.5471   -7.1164 O   0  5  0  0  0  0  0  0  0  0  0  0
    7.8917  -25.1181   -8.7324 O   0  0  0  0  0  0  0  0  0  0  0  0
    6.2158  -27.8258   -8.3829 O   0  0  0  0  0  0  0  0  0  0  0  0
    9.6292  -27.5098  -12.6842 H   0  0  0  0  0  0  0  0  0  0  0  0
   12.0524  -27.9868  -12.6083 H   0  0  0  0  0  0  0  0  0  0  0  0
   16.5098  -28.4413  -11.6320 H   0  0  0  0  0  0  0  0  0  0  0  0
   16.4187  -27.1770   -9.1894 H   0  0  0  0  0  0  0  0  0  0  0  0
    9.9991  -25.6267   -8.8384 H   0  0  0  0  0  0  0  0  0  0  0  0
   13.9094  -28.3280  -12.5022 H   0  0  0  0  0  0  0  0  0  0  0  0
    5.5335  -24.2059   -8.4182 H   0  0  0  0  0  0  0  0  0  0  0  0
    4.3896  -24.0678   -9.8227 H   0  0  0  0  0  0  0  0  0  0  0  0
    5.9128  -25.4249  -11.2489 H   0  0  0  0  0  0  0  0  0  0  0  0
    4.1517  -26.5270   -9.9436 H   0  0  0  0  0  0  0  0  0  0  0  0
    7.7223  -26.5529  -11.6009 H   0  0  0  0  0  0  0  0  0  0  0  0
  1  2  2  0  0  0  0
  1  7  1  0  0  0  0
  2  8  1  0  0  0  0
  3  4  1  0  0  0  0
  3  6  2  0  0  0  0
  4 15  2  0  0  0  0
  5  7  2  0  0  0  0
  5 14  1  0  0  0  0
  6 16  1  0  0  0  0
  7 17  1  0  0  0  0
  8 14  2  0  0  0  0
  8 16  1  0  0  0  0
  9 12  1  0  0  0  0
  9 17  1  0  0  0  0
  9 19  2  0  0  0  0
 10 13  1  0  0  0  0
 10 18  1  0  0  0  0
 10 20  2  0  0  0  0
 11 12  1  0  0  0  0
 11 13  1  0  0  0  0
 12 13  1  0  0  0  0
 15 16  1  0  0  0  0
  1 21  1  0  0  0  0
  2 22  1  0  0  0  0
  3 23  1  0  0  0  0
  4 24  1  0  0  0  0
  5 25  1  0  0  0  0
  6 26  1  0  0  0  0
 11 27  1  0  0  0  0
 11 28  1  0  0  0  0
 12 29  1  0  0  0  0
 13 30  1  0  0  0  0
 17 31  1  0  0  0  0
M  CHG  1  18  -1
M  END
> <Hybrid2>
-0.901384174823761

> <Hybrid2>
-0.828221

$$$$
C38743820
  -OEChem-02152218493D

 31 32  0     1  0  0  0  0  0999 V2000
    6.0011  -27.0035   -9.5041 C   0  0  0  0  0  0  0  0  0  0  0  0
    6.5473  -28.0805   -8.9398 C   0  0  0  0  0  0  0  0  0  0  0  0
    9.5081  -25.8564  -11.2053 C   0  0  0  0  0  0  0  0  0  0  0  0
   13.3143  -27.1617  -11.3775 C   0  0  0  0  0  0  0  0  0  0  0  0
    6.9614  -25.9011   -9.2486 C   0  0  2  0  0  0  0  0  0  0  0  0
    7.5301  -25.2925  -10.5190 C   0  0  1  0  0  0  0  0  0  0  0  0
    6.9167  -30.4389   -9.6179 C   0  0  0  0  0  0  0  0  0  0  0  0
    5.7350  -29.9129   -7.4626 C   0  0  0  0  0  0  0  0  0  0  0  0
   12.1329  -26.3771  -10.8249 C   0  0  0  0  0  0  0  0  0  0  0  0
    5.9883  -29.4553   -8.9019 C   0  0  0  0  0  0  0  0  0  0  0  0
    7.7575  -27.8104   -8.3514 N   0  0  0  0  0  0  0  0  0  0  0  0
    9.7443  -24.7376  -10.5960 N   0  0  0  0  0  0  0  0  0  0  0  0
    8.0482  -26.5888   -8.4983 N   0  0  0  0  0  0  0  0  0  0  0  0
    8.5295  -24.2785  -10.2150 N   0  0  0  0  0  0  0  0  0  0  0  0
   13.6120  -26.9113  -12.5803 O   0  5  0  0  0  0  0  0  0  0  0  0
   13.8342  -27.9892  -10.5756 O   0  0  0  0  0  0  0  0  0  0  0  0
    8.2138  -26.2926  -11.2610 O   0  0  0  0  0  0  0  0  0  0  0  0
   10.7677  -26.8132  -11.9242 S   0  0  0  0  0  0  0  0  0  0  0  0
    5.0596  -26.9424  -10.0250 H   0  0  0  0  0  0  0  0  0  0  0  0
    6.5119  -25.1292   -8.6148 H   0  0  0  0  0  0  0  0  0  0  0  0
    6.7277  -24.8788  -11.1401 H   0  0  0  0  0  0  0  0  0  0  0  0
    7.9003  -30.4813   -9.1365 H   0  0  0  0  0  0  0  0  0  0  0  0
    7.0665  -30.1424  -10.6621 H   0  0  0  0  0  0  0  0  0  0  0  0
    6.4976  -31.4508   -9.6163 H   0  0  0  0  0  0  0  0  0  0  0  0
    6.6695  -29.9315   -6.8907 H   0  0  0  0  0  0  0  0  0  0  0  0
    5.3031  -30.9198   -7.4335 H   0  0  0  0  0  0  0  0  0  0  0  0
    5.0439  -29.2358   -6.9493 H   0  0  0  0  0  0  0  0  0  0  0  0
   12.3180  -25.3001  -10.8603 H   0  0  0  0  0  0  0  0  0  0  0  0
   11.9022  -26.6680   -9.7964 H   0  0  0  0  0  0  0  0  0  0  0  0
    5.0212  -29.4555   -9.4272 H   0  0  0  0  0  0  0  0  0  0  0  0
    8.3326  -23.4089  -10.7087 H   0  0  0  0  0  0  0  0  0  0  0  0
  1  2  2  0  0  0  0
  1  5  1  0  0  0  0
  2 10  1  0  0  0  0
  2 11  1  0  0  0  0
  3 12  2  0  0  0  0
  3 17  1  0  0  0  0
  3 18  1  0  0  0  0
  4  9  1  0  0  0  0
  4 15  1  0  0  0  0
  4 16  2  0  0  0  0
  5  6  1  0  0  0  0
  5 13  1  0  0  0  0
  6 14  1  0  0  0  0
  6 17  1  0  0  0  0
  7 10  1  0  0  0  0
  8 10  1  0  0  0  0
  9 18  1  0  0  0  0
 11 13  2  0  0  0  0
 12 14  1  0  0  0  0
  1 19  1  0  0  0  0
  5 20  1  0  0  0  0
  6 21  1  0  0  0  0
  7 22  1  0  0  0  0
  7 23  1  0  0  0  0
  7 24  1  0  0  0  0
  8 25  1  0  0  0  0
  8 26  1  0  0  0  0
  8 27  1  0  0  0  0
  9 28  1  0  0  0  0
  9 29  1  0  0  0  0
 10 30  1  0  0  0  0
 14 31  1  0  0  0  0
M  CHG  1  15  -1
M  END
> <Hybrid2>
-3.7615487575531006

> <Hybrid2>
-3.761549

$$$$
C38743820
  -OEChem-02152218493D

 31 32  0     1  0  0  0  0  0999 V2000
    6.2211  -26.7618   -9.5269 C   0  0  0  0  0  0  0  0  0  0  0  0
    6.7424  -27.9219   -9.1282 C   0  0  0  0  0  0  0  0  0  0  0  0
    9.5695  -25.7216  -11.5798 C   0  0  0  0  0  0  0  0  0  0  0  0
   13.2020  -27.2769  -12.3585 C   0  0  0  0  0  0  0  0  0  0  0  0
    7.2941  -25.7592   -9.3131 C   0  0  2  0  0  0  0  0  0  0  0  0
    7.7473  -25.0808  -10.5947 C   0  0  1  0  0  0  0  0  0  0  0  0
    6.8261  -30.2299  -10.0362 C   0  0  0  0  0  0  0  0  0  0  0  0
    5.9726  -29.8170   -7.7083 C   0  0  0  0  0  0  0  0  0  0  0  0
   12.1689  -26.4623  -11.5933 C   0  0  0  0  0  0  0  0  0  0  0  0
    6.0801  -29.2507   -9.1270 C   0  0  0  0  0  0  0  0  0  0  0  0
    8.0351  -27.7941   -8.6854 N   0  0  0  0  0  0  0  0  0  0  0  0
    9.9726  -24.6823  -10.9193 N   0  0  0  0  0  0  0  0  0  0  0  0
    8.4057  -26.5883   -8.7709 N   0  0  0  0  0  0  0  0  0  0  0  0
    8.8579  -24.1731  -10.3453 N   0  0  0  0  0  0  0  0  0  0  0  0
   13.3660  -26.9410  -13.5661 O   0  5  0  0  0  0  0  0  0  0  0  0
   13.7480  -28.2088  -11.7015 O   0  0  0  0  0  0  0  0  0  0  0  0
    8.2467  -26.0565  -11.4985 O   0  0  0  0  0  0  0  0  0  0  0  0
   10.6448  -26.6978  -12.5336 S   0  0  0  0  0  0  0  0  0  0  0  0
    5.2298  -26.5863   -9.9121 H   0  0  0  0  0  0  0  0  0  0  0  0
    6.9937  -25.0172   -8.5656 H   0  0  0  0  0  0  0  0  0  0  0  0
    6.9104  -24.5559  -11.0689 H   0  0  0  0  0  0  0  0  0  0  0  0
    7.8554  -30.3864   -9.6942 H   0  0  0  0  0  0  0  0  0  0  0  0
    6.8676  -29.8519  -11.0638 H   0  0  0  0  0  0  0  0  0  0  0  0
    6.3278  -31.2050  -10.0603 H   0  0  0  0  0  0  0  0  0  0  0  0
    6.9668  -29.9544   -7.2684 H   0  0  0  0  0  0  0  0  0  0  0  0
    5.4656  -30.7887   -7.7031 H   0  0  0  0  0  0  0  0  0  0  0  0
    5.4102  -29.1409   -7.0553 H   0  0  0  0  0  0  0  0  0  0  0  0
   12.4369  -25.4027  -11.5663 H   0  0  0  0  0  0  0  0  0  0  0  0
   12.0459  -26.8276  -10.5699 H   0  0  0  0  0  0  0  0  0  0  0  0
    5.0580  -29.1337   -9.5180 H   0  0  0  0  0  0  0  0  0  0  0  0
    8.6734  -23.2506  -10.7372 H   0  0  0  0  0  0  0  0  0  0  0  0
  1  2  2  0  0  0  0
  1  5  1  0  0  0  0
  2 10  1  0  0  0  0
  2 11  1  0  0  0  0
  3 12  2  0  0  0  0
  3 17  1  0  0  0  0
  3 18  1  0  0  0  0
  4  9  1  0  0  0  0
  4 15  1  0  0  0  0
  4 16  2  0  0  0  0
  5  6  1  0  0  0  0
  5 13  1  0  0  0  0
  6 14  1  0  0  0  0
  6 17  1  0  0  0  0
  7 10  1  0  0  0  0
  8 10  1  0  0  0  0
  9 18  1  0  0  0  0
 11 13  2  0  0  0  0
 12 14  1  0  0  0  0
  1 19  1  0  0  0  0
  5 20  1  0  0  0  0
  6 21  1  0  0  0  0
  7 22  1  0  0  0  0
  7 23  1  0  0  0  0
  7 24  1  0  0  0  0
  8 25  1  0  0  0  0
  8 26  1  0  0  0  0
  8 27  1  0  0  0  0
  9 28  1  0  0  0  0
  9 29  1  0  0  0  0
 10 30  1  0  0  0  0
 14 31  1  0  0  0  0
M  CHG  1  15  -1
M  END
> <Hybrid2>
-3.7615487575531006

> <Hybrid2>
-3.702125

$$$$
C37732042
  -OEChem-02152218493D

 34 34  0     1  0  0  0  0  0999 V2000
   13.8744  -26.9881  -11.7893 C   0  0  0  0  0  0  0  0  0  0  0  0
   12.9023  -26.0412  -12.0014 C   0  0  0  0  0  0  0  0  0  0  0  0
   11.7189  -26.6399  -11.5293 C   0  0  0  0  0  0  0  0  0  0  0  0
   13.0853  -24.6630  -12.6093 C   0  0  0  0  0  0  0  0  0  0  0  0
    5.8983  -28.0385   -9.2008 C   0  0  0  0  0  0  0  0  0  0  0  0
    7.9906  -29.2084   -9.9335 C   0  0  0  0  0  0  0  0  0  0  0  0
    7.4470  -25.3701   -9.4000 C   0  0  0  0  0  0  0  0  0  0  0  0
   10.0384  -26.4197   -8.8265 C   0  0  0  0  0  0  0  0  0  0  0  0
    7.4233  -27.9318   -9.3020 C   0  0  0  0  0  0  0  0  0  0  0  0
    7.9160  -26.6705  -10.0484 C   0  0  2  0  0  0  0  0  0  0  0  0
   11.9186  -27.8719  -11.0535 N   0  0  0  0  0  0  0  0  0  0  0  0
   13.2388  -28.0550  -11.2255 N   0  0  0  0  0  0  0  0  0  0  0  0
    9.3619  -26.6559  -10.1430 N   0  0  1  0  0  0  0  0  0  0  0  0
   14.2585  -24.3427  -12.9632 O   0  5  0  0  0  0  0  0  0  0  0  0
   12.0507  -23.9401  -12.7152 O   0  0  0  0  0  0  0  0  0  0  0  0
   10.2745  -24.4929  -11.2599 O   0  0  0  0  0  0  0  0  0  0  0  0
    9.4428  -26.3290  -12.7501 O   0  0  0  0  0  0  0  0  0  0  0  0
   10.1058  -25.9089  -11.5293 S   0  0  0  0  0  0  0  0  0  0  0  0
   14.9376  -27.0013  -11.9824 H   0  0  0  0  0  0  0  0  0  0  0  0
    5.4510  -28.0919  -10.1995 H   0  0  0  0  0  0  0  0  0  0  0  0
    5.5954  -28.9419   -8.6633 H   0  0  0  0  0  0  0  0  0  0  0  0
    5.4643  -27.1731   -8.6897 H   0  0  0  0  0  0  0  0  0  0  0  0
    7.6388  -29.3230  -10.9643 H   0  0  0  0  0  0  0  0  0  0  0  0
    9.0850  -29.1720   -9.9591 H   0  0  0  0  0  0  0  0  0  0  0  0
    7.6998  -30.1022   -9.3717 H   0  0  0  0  0  0  0  0  0  0  0  0
    7.8244  -25.2974   -8.3737 H   0  0  0  0  0  0  0  0  0  0  0  0
    7.8106  -24.4877   -9.9369 H   0  0  0  0  0  0  0  0  0  0  0  0
    6.3541  -25.3246   -9.3596 H   0  0  0  0  0  0  0  0  0  0  0  0
   11.1291  -26.4207   -8.9687 H   0  0  0  0  0  0  0  0  0  0  0  0
    9.7224  -25.4471   -8.4213 H   0  0  0  0  0  0  0  0  0  0  0  0
    9.7598  -27.2180   -8.1228 H   0  0  0  0  0  0  0  0  0  0  0  0
    7.8148  -27.8818   -8.2767 H   0  0  0  0  0  0  0  0  0  0  0  0
    7.5128  -26.6929  -11.0684 H   0  0  0  0  0  0  0  0  0  0  0  0
   13.6435  -28.9355  -10.9325 H   0  0  0  0  0  0  0  0  0  0  0  0
  1  2  2  0  0  0  0
  1 12  1  0  0  0  0
  2  3  1  0  0  0  0
  2  4  1  0  0  0  0
  3 11  2  0  0  0  0
  3 18  1  0  0  0  0
  4 14  1  0  0  0  0
  4 15  2  0  0  0  0
  5  9  1  0  0  0  0
  6  9  1  0  0  0  0
  7 10  1  0  0  0  0
  8 13  1  0  0  0  0
  9 10  1  0  0  0  0
 10 13  1  0  0  0  0
 11 12  1  0  0  0  0
 13 18  1  0  0  0  0
 16 18  2  0  0  0  0
 17 18  2  0  0  0  0
  1 19  1  0  0  0  0
  5 20  1  0  0  0  0
  5 21  1  0  0  0  0
  5 22  1  0  0  0  0
  6 23  1  0  0  0  0
  6 24  1  0  0  0  0
  6 25  1  0  0  0  0
  7 26  1  0  0  0  0
  7 27  1  0  0  0  0
  7 28  1  0  0  0  0
  8 29  1  0  0  0  0
  8 30  1  0  0  0  0
  8 31  1  0  0  0  0
  9 32  1  0  0  0  0
 10 33  1  0  0  0  0
 12 34  1  0  0  0  0
M  CHG  1  14  -1
M  END
> <Hybrid2>
-3.8698878288269043

> <Hybrid2>
-3.869888

$$$$
C37732042
  -OEChem-02152218493D

 34 34  0     1  0  0  0  0  0999 V2000
    6.5011  -27.3624   -8.3774 C   0  0  0  0  0  0  0  0  0  0  0  0
    7.4625  -27.5829   -9.3333 C   0  0  0  0  0  0  0  0  0  0  0  0
    7.6685  -26.3212   -9.9228 C   0  0  0  0  0  0  0  0  0  0  0  0
    8.1391  -28.9004   -9.6629 C   0  0  0  0  0  0  0  0  0  0  0  0
   13.5501  -27.1251  -11.5423 C   0  0  0  0  0  0  0  0  0  0  0  0
   12.2820  -27.3778   -9.3949 C   0  0  0  0  0  0  0  0  0  0  0  0
   11.3187  -25.2177  -12.5125 C   0  0  0  0  0  0  0  0  0  0  0  0
   10.1455  -24.3735   -9.4228 C   0  0  0  0  0  0  0  0  0  0  0  0
   12.1770  -26.9945  -10.8756 C   0  0  0  0  0  0  0  0  0  0  0  0
   11.5248  -25.6033  -11.0494 C   0  0  2  0  0  0  0  0  0  0  0  0
    6.8996  -25.3697   -9.3865 N   0  0  0  0  0  0  0  0  0  0  0  0
    6.2010  -26.0339   -8.4500 N   0  0  0  0  0  0  0  0  0  0  0  0
   10.2516  -25.5380  -10.3605 N   0  0  1  0  0  0  0  0  0  0  0  0
    7.5900  -29.6226  -10.5468 O   0  5  0  0  0  0  0  0  0  0  0  0
    9.2001  -29.1756   -9.0283 O   0  0  0  0  0  0  0  0  0  0  0  0
    9.0342  -27.1851  -11.9617 O   0  0  0  0  0  0  0  0  0  0  0  0
    8.2838  -24.7934  -11.9364 O   0  0  0  0  0  0  0  0  0  0  0  0
    8.8020  -25.9519  -11.2325 S   0  0  0  0  0  0  0  0  0  0  0  0
    6.0132  -28.0138   -7.6664 H   0  0  0  0  0  0  0  0  0  0  0  0
   14.2569  -26.4102  -11.1067 H   0  0  0  0  0  0  0  0  0  0  0  0
   13.9716  -28.1241  -11.3972 H   0  0  0  0  0  0  0  0  0  0  0  0
   13.4993  -26.9267  -12.6177 H   0  0  0  0  0  0  0  0  0  0  0  0
   12.9332  -26.6807   -8.8569 H   0  0  0  0  0  0  0  0  0  0  0  0
   11.2965  -27.3458   -8.9179 H   0  0  0  0  0  0  0  0  0  0  0  0
   12.6824  -28.3887   -9.2655 H   0  0  0  0  0  0  0  0  0  0  0  0
   10.6600  -25.9396  -13.0085 H   0  0  0  0  0  0  0  0  0  0  0  0
   10.8497  -24.2337  -12.6169 H   0  0  0  0  0  0  0  0  0  0  0  0
   12.2709  -25.2063  -13.0522 H   0  0  0  0  0  0  0  0  0  0  0  0
    9.1595  -24.3834   -8.9352 H   0  0  0  0  0  0  0  0  0  0  0  0
   10.9332  -24.4455   -8.6584 H   0  0  0  0  0  0  0  0  0  0  0  0
   10.2661  -23.4367   -9.9866 H   0  0  0  0  0  0  0  0  0  0  0  0
   11.5137  -27.7308  -11.3496 H   0  0  0  0  0  0  0  0  0  0  0  0
   12.1877  -24.8524  -10.6021 H   0  0  0  0  0  0  0  0  0  0  0  0
    5.5340  -25.5162   -7.8914 H   0  0  0  0  0  0  0  0  0  0  0  0
  1  2  2  0  0  0  0
  1 12  1  0  0  0  0
  2  3  1  0  0  0  0
  2  4  1  0  0  0  0
  3 11  2  0  0  0  0
  3 18  1  0  0  0  0
  4 14  1  0  0  0  0
  4 15  2  0  0  0  0
  5  9  1  0  0  0  0
  6  9  1  0  0  0  0
  7 10  1  0  0  0  0
  8 13  1  0  0  0  0
  9 10  1  0  0  0  0
 10 13  1  0  0  0  0
 11 12  1  0  0  0  0
 13 18  1  0  0  0  0
 16 18  2  0  0  0  0
 17 18  2  0  0  0  0
  1 19  1  0  0  0  0
  5 20  1  0  0  0  0
  5 21  1  0  0  0  0
  5 22  1  0  0  0  0
  6 23  1  0  0  0  0
  6 24  1  0  0  0  0
  6 25  1  0  0  0  0
  7 26  1  0  0  0  0
  7 27  1  0  0  0  0
  7 28  1  0  0  0  0
  8 29  1  0  0  0  0
  8 30  1  0  0  0  0
  8 31  1  0  0  0  0
  9 32  1  0  0  0  0
 10 33  1  0  0  0  0
 12 34  1  0  0  0  0
M  CHG  1  14  -1
M  END
> <Hybrid2>
-3.8698878288269043

> <Hybrid2>
-2.908019

$$$$
C39565700
  -OEChem-02152218493D

 30 32  0     1  0  0  0  0  0999 V2000
    5.5931  -26.2185   -9.9930 C   0  0  0  0  0  0  0  0  0  0  0  0
    5.8746  -30.1172   -8.1322 C   0  0  0  0  0  0  0  0  0  0  0  0
    6.8075  -28.3218   -9.0084 C   0  0  0  0  0  0  0  0  0  0  0  0
    5.4216  -28.2390   -9.0228 C   0  0  0  0  0  0  0  0  0  0  0  0
    7.5826  -27.2964   -9.5133 C   0  0  0  0  0  0  0  0  0  0  0  0
   10.6154  -27.0726  -12.9465 C   0  0  0  0  0  0  0  0  0  0  0  0
   14.2032  -27.0480  -11.4023 C   0  0  0  0  0  0  0  0  0  0  0  0
   11.8875  -26.4734  -12.3718 C   0  0  2  0  0  0  0  0  0  0  0  0
    9.6830  -26.3555  -11.0020 C   0  0  2  0  0  0  0  0  0  0  0  0
   10.6664  -27.7217  -14.3012 C   0  0  0  0  0  0  0  0  0  0  0  0
   12.8996  -27.5523  -12.0241 C   0  0  0  0  0  0  0  0  0  0  0  0
    4.7574  -27.1693   -9.5227 N   0  0  0  0  0  0  0  0  0  0  0  0
    6.9472  -26.2155  -10.0191 N   0  0  0  0  0  0  0  0  0  0  0  0
    4.8537  -29.3611   -8.4755 N   0  0  0  0  0  0  0  0  0  0  0  0
    9.4988  -27.0572  -12.2857 N   0  0  0  0  0  0  0  0  0  0  0  0
    7.0758  -29.5318   -8.4343 N   0  0  0  0  0  0  0  0  0  0  0  0
   14.6072  -25.9123  -11.7740 O   0  5  0  0  0  0  0  0  0  0  0  0
   14.7219  -27.8520  -10.5743 O   0  0  0  0  0  0  0  0  0  0  0  0
   11.3380  -25.6205  -10.8795 S   0  0  0  0  0  0  0  0  0  0  0  0
    9.3455  -27.3628   -9.5137 S   0  0  0  0  0  0  0  0  0  0  0  0
    5.1157  -25.3366  -10.4066 H   0  0  0  0  0  0  0  0  0  0  0  0
    5.8156  -31.0903   -7.6658 H   0  0  0  0  0  0  0  0  0  0  0  0
   12.3068  -25.7531  -13.0801 H   0  0  0  0  0  0  0  0  0  0  0  0
    8.9688  -25.5263  -10.9762 H   0  0  0  0  0  0  0  0  0  0  0  0
   10.9036  -28.7759  -14.1863 H   0  0  0  0  0  0  0  0  0  0  0  0
   11.4300  -27.2373  -14.9043 H   0  0  0  0  0  0  0  0  0  0  0  0
    9.7011  -27.6135  -14.7888 H   0  0  0  0  0  0  0  0  0  0  0  0
   13.1502  -28.1089  -12.9336 H   0  0  0  0  0  0  0  0  0  0  0  0
   12.4393  -28.2572  -11.3233 H   0  0  0  0  0  0  0  0  0  0  0  0
    7.9913  -29.9261   -8.2632 H   0  0  0  0  0  0  0  0  0  0  0  0
  1 12  2  0  0  0  0
  1 13  1  0  0  0  0
  2 14  2  0  0  0  0
  2 16  1  0  0  0  0
  3  4  2  0  0  0  0
  3  5  1  0  0  0  0
  3 16  1  0  0  0  0
  4 12  1  0  0  0  0
  4 14  1  0  0  0  0
  5 13  2  0  0  0  0
  5 20  1  0  0  0  0
  6  8  1  0  0  0  0
  6 10  1  0  0  0  0
  6 15  2  0  0  0  0
  7 11  1  0  0  0  0
  7 17  1  0  0  0  0
  7 18  2  0  0  0  0
  8 11  1  0  0  0  0
  8 19  1  0  0  0  0
  9 15  1  0  0  0  0
  9 19  1  0  0  0  0
  9 20  1  0  0  0  0
  1 21  1  0  0  0  0
  2 22  1  0  0  0  0
  8 23  1  0  0  0  0
  9 24  1  0  0  0  0
 10 25  1  0  0  0  0
 10 26  1  0  0  0  0
 10 27  1  0  0  0  0
 11 28  1  0  0  0  0
 11 29  1  0  0  0  0
 16 30  1  0  0  0  0
M  CHG  1  17  -1
M  END
> <Hybrid2>
-3.89673113822937

> <Hybrid2>
-3.896731

$$$$
C39565700
  -OEChem-02152218493D

 30 32  0     1  0  0  0  0  0999 V2000
    5.2855  -26.2797   -9.8220 C   0  0  0  0  0  0  0  0  0  0  0  0
    5.5670  -30.1784   -7.9612 C   0  0  0  0  0  0  0  0  0  0  0  0
    6.4998  -28.3830   -8.8374 C   0  0  0  0  0  0  0  0  0  0  0  0
    5.1140  -28.3002   -8.8518 C   0  0  0  0  0  0  0  0  0  0  0  0
    7.2750  -27.3576   -9.3423 C   0  0  0  0  0  0  0  0  0  0  0  0
   10.3077  -27.1338  -12.7755 C   0  0  0  0  0  0  0  0  0  0  0  0
   13.8956  -27.1092  -11.2313 C   0  0  0  0  0  0  0  0  0  0  0  0
   11.5799  -26.5346  -12.2008 C   0  0  2  0  0  0  0  0  0  0  0  0
    9.3753  -26.4167  -10.8310 C   0  0  2  0  0  0  0  0  0  0  0  0
   10.3588  -27.7829  -14.1302 C   0  0  0  0  0  0  0  0  0  0  0  0
   12.5920  -27.6135  -11.8531 C   0  0  0  0  0  0  0  0  0  0  0  0
    4.4497  -27.2305   -9.3517 N   0  0  0  0  0  0  0  0  0  0  0  0
    6.6395  -26.2767   -9.8481 N   0  0  0  0  0  0  0  0  0  0  0  0
    4.5460  -29.4223   -8.3045 N   0  0  0  0  0  0  0  0  0  0  0  0
    9.1912  -27.1184  -12.1147 N   0  0  0  0  0  0  0  0  0  0  0  0
    6.7681  -29.5930   -8.2633 N   0  0  0  0  0  0  0  0  0  0  0  0
   14.2996  -25.9735  -11.6030 O   0  5  0  0  0  0  0  0  0  0  0  0
   14.4142  -27.9131  -10.4033 O   0  0  0  0  0  0  0  0  0  0  0  0
   11.0304  -25.6817  -10.7085 S   0  0  0  0  0  0  0  0  0  0  0  0
    9.0379  -27.4240   -9.3427 S   0  0  0  0  0  0  0  0  0  0  0  0
    4.8081  -25.3977  -10.2356 H   0  0  0  0  0  0  0  0  0  0  0  0
    5.5079  -31.1515   -7.4948 H   0  0  0  0  0  0  0  0  0  0  0  0
   11.9991  -25.8143  -12.9090 H   0  0  0  0  0  0  0  0  0  0  0  0
    8.6612  -25.5875  -10.8052 H   0  0  0  0  0  0  0  0  0  0  0  0
   10.5959  -28.8371  -14.0152 H   0  0  0  0  0  0  0  0  0  0  0  0
   11.1223  -27.2985  -14.7333 H   0  0  0  0  0  0  0  0  0  0  0  0
    9.3935  -27.6747  -14.6178 H   0  0  0  0  0  0  0  0  0  0  0  0
   12.8426  -28.1701  -12.7626 H   0  0  0  0  0  0  0  0  0  0  0  0
   12.1317  -28.3184  -11.1523 H   0  0  0  0  0  0  0  0  0  0  0  0
    7.6837  -29.9873   -8.0922 H   0  0  0  0  0  0  0  0  0  0  0  0
  1 12  2  0  0  0  0
  1 13  1  0  0  0  0
  2 14  2  0  0  0  0
  2 16  1  0  0  0  0
  3  4  2  0  0  0  0
  3  5  1  0  0  0  0
  3 16  1  0  0  0  0
  4 12  1  0  0  0  0
  4 14  1  0  0  0  0
  5 13  2  0  0  0  0
  5 20  1  0  0  0  0
  6  8  1  0  0  0  0
  6 10  1  0  0  0  0
  6 15  2  0  0  0  0
  7 11  1  0  0  0  0
  7 17  1  0  0  0  0
  7 18  2  0  0  0  0
  8 11  1  0  0  0  0
  8 19  1  0  0  0  0
  9 15  1  0  0  0  0
  9 19  1  0  0  0  0
  9 20  1  0  0  0  0
  1 21  1  0  0  0  0
  2 22  1  0  0  0  0
  8 23  1  0  0  0  0
  9 24  1  0  0  0  0
 10 25  1  0  0  0  0
 10 26  1  0  0  0  0
 10 27  1  0  0  0  0
 11 28  1  0  0  0  0
 11 29  1  0  0  0  0
 16 30  1  0  0  0  0
M  CHG  1  17  -1
M  END
> <Hybrid2>
-3.89673113822937

> <Hybrid2>
-3.773054

$$$$
C40582112
  -OEChem-02152218493D

 39 40  0     1  0  0  0  0  0999 V2000
   11.4257  -25.9203  -10.6752 C   0  0  0  0  0  0  0  0  0  0  0  0
   12.1142  -28.0035  -10.8207 C   0  0  0  0  0  0  0  0  0  0  0  0
   10.9944  -27.2548  -10.5526 C   0  0  0  0  0  0  0  0  0  0  0  0
   15.0844  -28.2494  -10.2943 C   0  0  0  0  0  0  0  0  0  0  0  0
    8.5602  -27.0023   -9.9551 C   0  0  0  0  0  0  0  0  0  0  0  0
    5.6787  -27.5555   -7.9475 C   0  0  0  0  0  0  0  0  0  0  0  0
    5.5921  -29.0805   -7.8498 C   0  0  0  0  0  0  0  0  0  0  0  0
    6.1574  -27.1089   -9.3276 C   0  0  0  0  0  0  0  0  0  0  0  0
    7.3316  -29.2441   -9.6637 C   0  0  0  0  0  0  0  0  0  0  0  0
    6.9119  -29.7467   -8.2767 C   0  0  2  0  0  0  0  0  0  0  0  0
    8.0583  -31.9357   -8.6495 C   0  0  0  0  0  0  0  0  0  0  0  0
   14.4776  -27.4196  -11.4138 C   0  0  0  0  0  0  0  0  0  0  0  0
    6.7788  -31.2670   -8.2667 C   0  0  0  0  0  0  0  0  0  0  0  0
   12.7187  -25.8237  -10.9960 N   0  0  0  0  0  0  0  0  0  0  0  0
   13.1095  -27.1070  -11.0772 N   0  0  0  0  0  0  0  0  0  0  0  0
    7.4171  -27.7756   -9.6637 N   0  0  0  0  0  0  0  0  0  0  0  0
    9.7062  -27.7481  -10.2288 N   0  0  0  0  0  0  0  0  0  0  0  0
   15.1020  -27.6920   -9.1606 O   0  5  0  0  0  0  0  0  0  0  0  0
   15.5109  -29.3876  -10.6391 O   0  0  0  0  0  0  0  0  0  0  0  0
    8.5318  -25.7691   -9.9355 O   0  0  0  0  0  0  0  0  0  0  0  0
   10.8537  -25.0125  -10.5453 H   0  0  0  0  0  0  0  0  0  0  0  0
   12.2844  -29.0715  -10.8500 H   0  0  0  0  0  0  0  0  0  0  0  0
    4.6960  -27.1182   -7.7381 H   0  0  0  0  0  0  0  0  0  0  0  0
    6.3674  -27.1781   -7.1814 H   0  0  0  0  0  0  0  0  0  0  0  0
    5.3414  -29.3667   -6.8216 H   0  0  0  0  0  0  0  0  0  0  0  0
    4.7725  -29.4342   -8.4884 H   0  0  0  0  0  0  0  0  0  0  0  0
    5.4236  -27.3772  -10.0967 H   0  0  0  0  0  0  0  0  0  0  0  0
    6.2675  -26.0204   -9.3439 H   0  0  0  0  0  0  0  0  0  0  0  0
    8.2626  -29.7181   -9.9746 H   0  0  0  0  0  0  0  0  0  0  0  0
    6.5812  -29.5193  -10.4160 H   0  0  0  0  0  0  0  0  0  0  0  0
    7.6940  -29.4704   -7.5541 H   0  0  0  0  0  0  0  0  0  0  0  0
    8.3587  -31.6088   -9.6520 H   0  0  0  0  0  0  0  0  0  0  0  0
    7.9398  -33.0243   -8.6687 H   0  0  0  0  0  0  0  0  0  0  0  0
    8.8604  -31.6727   -7.9519 H   0  0  0  0  0  0  0  0  0  0  0  0
   15.0249  -26.4818  -11.5594 H   0  0  0  0  0  0  0  0  0  0  0  0
   14.4881  -27.9613  -12.3661 H   0  0  0  0  0  0  0  0  0  0  0  0
    6.4794  -31.5930   -7.2671 H   0  0  0  0  0  0  0  0  0  0  0  0
    5.9888  -31.5612   -8.9626 H   0  0  0  0  0  0  0  0  0  0  0  0
    9.6157  -28.7995  -10.1938 H   0  0  0  0  0  0  0  0  0  0  0  0
  1  3  1  0  0  0  0
  1 14  2  0  0  0  0
  2  3  2  0  0  0  0
  2 15  1  0  0  0  0
  3 17  1  0  0  0  0
  4 12  1  0  0  0  0
  4 18  1  0  0  0  0
  4 19  2  0  0  0  0
  5 16  1  0  0  0  0
  5 17  1  0  0  0  0
  5 20  2  0  0  0  0
  6  7  1  0  0  0  0
  6  8  1  0  0  0  0
  7 10  1  0  0  0  0
  8 16  1  0  0  0  0
  9 10  1  0  0  0  0
  9 16  1  0  0  0  0
 10 13  1  0  0  0  0
 11 13  1  0  0  0  0
 12 15  1  0  0  0  0
 14 15  1  0  0  0  0
  1 21  1  0  0  0  0
  2 22  1  0  0  0  0
  6 23  1  0  0  0  0
  6 24  1  0  0  0  0
  7 25  1  0  0  0  0
  7 26  1  0  0  0  0
  8 27  1  0  0  0  0
  8 28  1  0  0  0  0
  9 29  1  0  0  0  0
  9 30  1  0  0  0  0
 10 31  1  0  0  0  0
 11 32  1  0  0  0  0
 11 33  1  0  0  0  0
 11 34  1  0  0  0  0
 12 35  1  0  0  0  0
 12 36  1  0  0  0  0
 13 37  1  0  0  0  0
 13 38  1  0  0  0  0
 17 39  1  0  0  0  0
M  CHG  1  18  -1
M  END
> <Hybrid2>
-3.1311025619506836

> <Hybrid2>
-3.131103

$$$$
C40582112
  -OEChem-02152218493D

 39 40  0     1  0  0  0  0  0999 V2000
   10.9085  -25.5395  -10.8821 C   0  0  0  0  0  0  0  0  0  0  0  0
   11.4964  -27.6476  -11.0953 C   0  0  0  0  0  0  0  0  0  0  0  0
   10.4394  -26.8564  -10.7165 C   0  0  0  0  0  0  0  0  0  0  0  0
   14.4924  -28.0116  -10.8693 C   0  0  0  0  0  0  0  0  0  0  0  0
    8.0892  -26.5109   -9.8780 C   0  0  0  0  0  0  0  0  0  0  0  0
    5.4038  -26.9580   -7.5914 C   0  0  0  0  0  0  0  0  0  0  0  0
    5.2676  -28.4789   -7.4851 C   0  0  0  0  0  0  0  0  0  0  0  0
    5.7590  -26.5256   -9.0127 C   0  0  0  0  0  0  0  0  0  0  0  0
    6.8087  -28.7039   -9.4642 C   0  0  0  0  0  0  0  0  0  0  0  0
    6.5107  -29.1947   -8.0420 C   0  0  2  0  0  0  0  0  0  0  0  0
    7.5269  -31.4256   -8.5271 C   0  0  0  0  0  0  0  0  0  0  0  0
   13.8097  -27.1545  -11.9225 C   0  0  0  0  0  0  0  0  0  0  0  0
    6.3195  -30.7087   -8.0182 C   0  0  0  0  0  0  0  0  0  0  0  0
   12.1656  -25.4925  -11.3310 N   0  0  0  0  0  0  0  0  0  0  0  0
   12.4955  -26.7898  -11.4505 N   0  0  0  0  0  0  0  0  0  0  0  0
    6.9516  -27.2399   -9.4732 N   0  0  0  0  0  0  0  0  0  0  0  0
    9.1717  -27.3000  -10.2650 N   0  0  0  0  0  0  0  0  0  0  0  0
   14.6455  -27.4594   -9.7432 O   0  5  0  0  0  0  0  0  0  0  0  0
   14.8371  -29.1644  -11.2547 O   0  0  0  0  0  0  0  0  0  0  0  0
    8.1115  -25.2777   -9.8560 O   0  0  0  0  0  0  0  0  0  0  0  0
   10.3886  -24.6104  -10.6959 H   0  0  0  0  0  0  0  0  0  0  0  0
   11.6206  -28.7213  -11.1411 H   0  0  0  0  0  0  0  0  0  0  0  0
    4.4651  -26.4834   -7.2848 H   0  0  0  0  0  0  0  0  0  0  0  0
    6.1802  -26.6107   -6.8984 H   0  0  0  0  0  0  0  0  0  0  0  0
    5.1100  -28.7588   -6.4369 H   0  0  0  0  0  0  0  0  0  0  0  0
    4.3748  -28.7979   -8.0382 H   0  0  0  0  0  0  0  0  0  0  0  0
    4.9419  -26.7622   -9.7043 H   0  0  0  0  0  0  0  0  0  0  0  0
    5.9097  -25.4422   -9.0403 H   0  0  0  0  0  0  0  0  0  0  0  0
    7.6845  -29.2129   -9.8667 H   0  0  0  0  0  0  0  0  0  0  0  0
    5.9764  -28.9468  -10.1374 H   0  0  0  0  0  0  0  0  0  0  0  0
    7.3715  -28.9519   -7.4015 H   0  0  0  0  0  0  0  0  0  0  0  0
    7.7380  -31.1071   -9.5547 H   0  0  0  0  0  0  0  0  0  0  0  0
    7.3643  -32.5087   -8.5340 H   0  0  0  0  0  0  0  0  0  0  0  0
    8.4046  -31.1967   -7.9135 H   0  0  0  0  0  0  0  0  0  0  0  0
   14.3760  -26.2383  -12.1226 H   0  0  0  0  0  0  0  0  0  0  0  0
   13.7033  -27.6927  -12.8709 H   0  0  0  0  0  0  0  0  0  0  0  0
    6.1092  -31.0264   -6.9935 H   0  0  0  0  0  0  0  0  0  0  0  0
    5.4528  -30.9692   -8.6313 H   0  0  0  0  0  0  0  0  0  0  0  0
    9.0439  -28.3472  -10.2207 H   0  0  0  0  0  0  0  0  0  0  0  0
  1  3  1  0  0  0  0
  1 14  2  0  0  0  0
  2  3  2  0  0  0  0
  2 15  1  0  0  0  0
  3 17  1  0  0  0  0
  4 12  1  0  0  0  0
  4 18  1  0  0  0  0
  4 19  2  0  0  0  0
  5 16  1  0  0  0  0
  5 17  1  0  0  0  0
  5 20  2  0  0  0  0
  6  7  1  0  0  0  0
  6  8  1  0  0  0  0
  7 10  1  0  0  0  0
  8 16  1  0  0  0  0
  9 10  1  0  0  0  0
  9 16  1  0  0  0  0
 10 13  1  0  0  0  0
 11 13  1  0  0  0  0
 12 15  1  0  0  0  0
 14 15  1  0  0  0  0
  1 21  1  0  0  0  0
  2 22  1  0  0  0  0
  6 23  1  0  0  0  0
  6 24  1  0  0  0  0
  7 25  1  0  0  0  0
  7 26  1  0  0  0  0
  8 27  1  0  0  0  0
  8 28  1  0  0  0  0
  9 29  1  0  0  0  0
  9 30  1  0  0  0  0
 10 31  1  0  0  0  0
 11 32  1  0  0  0  0
 11 33  1  0  0  0  0
 11 34  1  0  0  0  0
 12 35  1  0  0  0  0
 12 36  1  0  0  0  0
 13 37  1  0  0  0  0
 13 38  1  0  0  0  0
 17 39  1  0  0  0  0
M  CHG  1  18  -1
M  END
> <Hybrid2>
-3.1311025619506836

> <Hybrid2>
-2.868954

$$$$
C40826333
  -OEChem-02152218493D

 34 36  0     0  0  0  0  0  0999 V2000
    9.3000  -26.8201   -8.8090 C   0  0  0  0  0  0  0  0  0  0  0  0
   10.4743  -26.9524   -9.5417 C   0  0  0  0  0  0  0  0  0  0  0  0
    8.3506  -25.6392  -10.6421 C   0  0  0  0  0  0  0  0  0  0  0  0
    6.3626  -29.0859  -10.4524 C   0  0  0  0  0  0  0  0  0  0  0  0
    5.7055  -29.3175   -8.3669 C   0  0  0  0  0  0  0  0  0  0  0  0
    8.2133  -26.1524   -9.3624 C   0  0  0  0  0  0  0  0  0  0  0  0
    5.9124  -28.3623   -9.3319 C   0  0  0  0  0  0  0  0  0  0  0  0
   10.5104  -26.4036  -10.8134 C   0  0  0  0  0  0  0  0  0  0  0  0
   13.9985  -26.8456  -12.0584 C   0  0  0  0  0  0  0  0  0  0  0  0
   13.2256  -26.6996  -13.3535 C   0  0  0  0  0  0  0  0  0  0  0  0
   12.9124  -27.2290  -11.0597 C   0  0  0  0  0  0  0  0  0  0  0  0
   11.9319  -26.0331  -12.8999 C   0  0  0  0  0  0  0  0  0  0  0  0
    9.4751  -25.7479  -11.3845 N   0  0  0  0  0  0  0  0  0  0  0  0
    6.4377  -30.3994  -10.2219 N   0  0  0  0  0  0  0  0  0  0  0  0
    7.0649  -26.0091   -8.6771 N   0  5  0  0  0  0  0  0  0  0  0  0
    6.0320  -30.5087   -8.9454 N   0  0  0  0  0  0  0  0  0  0  0  0
   11.7061  -26.5458  -11.5430 N   0  0  0  0  0  0  0  0  0  0  0  0
    5.3008  -26.2040  -10.5532 O   0  0  0  0  0  0  0  0  0  0  0  0
    4.5679  -26.4938   -8.2282 O   0  0  0  0  0  0  0  0  0  0  0  0
    5.6653  -26.5817   -9.1893 S   0  0  0  0  0  0  0  0  0  0  0  0
    9.2498  -27.2435   -7.8084 H   0  0  0  0  0  0  0  0  0  0  0  0
   11.3275  -27.4719   -9.1177 H   0  0  0  0  0  0  0  0  0  0  0  0
    7.5408  -25.1066  -11.1336 H   0  0  0  0  0  0  0  0  0  0  0  0
    6.6414  -28.7136  -11.4278 H   0  0  0  0  0  0  0  0  0  0  0  0
    5.3653  -29.2601   -7.3425 H   0  0  0  0  0  0  0  0  0  0  0  0
   14.7872  -27.6001  -12.1256 H   0  0  0  0  0  0  0  0  0  0  0  0
   14.4548  -25.8895  -11.7760 H   0  0  0  0  0  0  0  0  0  0  0  0
   13.7637  -26.1024  -14.0949 H   0  0  0  0  0  0  0  0  0  0  0  0
   13.0153  -27.6847  -13.7863 H   0  0  0  0  0  0  0  0  0  0  0  0
   12.7459  -28.3120  -11.0595 H   0  0  0  0  0  0  0  0  0  0  0  0
   13.1805  -26.9112  -10.0464 H   0  0  0  0  0  0  0  0  0  0  0  0
   12.0449  -24.9436  -12.8662 H   0  0  0  0  0  0  0  0  0  0  0  0
   11.1040  -26.2829  -13.5717 H   0  0  0  0  0  0  0  0  0  0  0  0
    6.0037  -31.4307   -8.5285 H   0  0  0  0  0  0  0  0  0  0  0  0
  1  2  1  0  0  0  0
  1  6  2  0  0  0  0
  2  8  2  0  0  0  0
  3  6  1  0  0  0  0
  3 13  2  0  0  0  0
  4  7  1  0  0  0  0
  4 14  2  0  0  0  0
  5  7  2  0  0  0  0
  5 16  1  0  0  0  0
  6 15  1  0  0  0  0
  7 20  1  0  0  0  0
  8 13  1  0  0  0  0
  8 17  1  0  0  0  0
  9 10  1  0  0  0  0
  9 11  1  0  0  0  0
 10 12  1  0  0  0  0
 11 17  1  0  0  0  0
 12 17  1  0  0  0  0
 14 16  1  0  0  0  0
 15 20  1  0  0  0  0
 18 20  2  0  0  0  0
 19 20  2  0  0  0  0
  1 21  1  0  0  0  0
  2 22  1  0  0  0  0
  3 23  1  0  0  0  0
  4 24  1  0  0  0  0
  5 25  1  0  0  0  0
  9 26  1  0  0  0  0
  9 27  1  0  0  0  0
 10 28  1  0  0  0  0
 10 29  1  0  0  0  0
 11 30  1  0  0  0  0
 11 31  1  0  0  0  0
 12 32  1  0  0  0  0
 12 33  1  0  0  0  0
 16 34  1  0  0  0  0
M  CHG  1  15  -1
M  END
> <Hybrid2>
-3.228410482406616

> <Hybrid2>
-3.228410

$$$$
C40826333
  -OEChem-02152218493D

 34 36  0     0  0  0  0  0  0999 V2000
    9.3720  -26.7412   -8.3030 C   0  0  0  0  0  0  0  0  0  0  0  0
   10.6534  -26.9538   -8.7988 C   0  0  0  0  0  0  0  0  0  0  0  0
    8.6345  -26.3369  -10.5277 C   0  0  0  0  0  0  0  0  0  0  0  0
    6.9123  -29.7605   -9.4415 C   0  0  0  0  0  0  0  0  0  0  0  0
    5.9553  -29.3923   -7.4964 C   0  0  0  0  0  0  0  0  0  0  0  0
    8.3376  -26.4264   -9.1773 C   0  0  0  0  0  0  0  0  0  0  0  0
    6.2373  -28.7783   -8.6922 C   0  0  0  0  0  0  0  0  0  0  0  0
   10.8466  -26.8409  -10.1662 C   0  0  0  0  0  0  0  0  0  0  0  0
   14.5106  -27.2207  -10.7523 C   0  0  0  0  0  0  0  0  0  0  0  0
   13.9420  -27.5942  -12.1062 C   0  0  0  0  0  0  0  0  0  0  0  0
   13.3138  -27.3962   -9.8245 C   0  0  0  0  0  0  0  0  0  0  0  0
   12.5457  -26.9840  -12.0647 C   0  0  0  0  0  0  0  0  0  0  0  0
    9.8668  -26.5367  -11.0466 N   0  0  0  0  0  0  0  0  0  0  0  0
    7.0509  -30.9110   -8.7773 N   0  0  0  0  0  0  0  0  0  0  0  0
    7.0883  -26.2153   -8.7262 N   0  5  0  0  0  0  0  0  0  0  0  0
    6.4592  -30.6556   -7.5980 N   0  0  0  0  0  0  0  0  0  0  0  0
   12.1496  -27.0593  -10.6531 N   0  0  0  0  0  0  0  0  0  0  0  0
    5.6612  -27.2183  -10.6308 O   0  0  0  0  0  0  0  0  0  0  0  0
    4.5965  -26.8374   -8.4518 O   0  0  0  0  0  0  0  0  0  0  0  0
    5.8347  -27.0911   -9.1853 S   0  0  0  0  0  0  0  0  0  0  0  0
    9.1978  -26.8248   -7.2327 H   0  0  0  0  0  0  0  0  0  0  0  0
   11.4667  -27.1999   -8.1239 H   0  0  0  0  0  0  0  0  0  0  0  0
    7.8735  -26.0947  -11.2647 H   0  0  0  0  0  0  0  0  0  0  0  0
    7.3114  -29.6884  -10.4431 H   0  0  0  0  0  0  0  0  0  0  0  0
    5.4549  -29.0529   -6.6004 H   0  0  0  0  0  0  0  0  0  0  0  0
   15.3557  -27.8527  -10.4656 H   0  0  0  0  0  0  0  0  0  0  0  0
   14.8420  -26.1756  -10.7523 H   0  0  0  0  0  0  0  0  0  0  0  0
   14.5424  -27.2037  -12.9326 H   0  0  0  0  0  0  0  0  0  0  0  0
   13.8786  -28.6841  -12.2068 H   0  0  0  0  0  0  0  0  0  0  0  0
   13.2330  -28.4340   -9.4824 H   0  0  0  0  0  0  0  0  0  0  0  0
   13.3940  -26.7400   -8.9513 H   0  0  0  0  0  0  0  0  0  0  0  0
   12.5679  -25.9359  -12.3840 H   0  0  0  0  0  0  0  0  0  0  0  0
   11.8554  -27.5366  -12.7105 H   0  0  0  0  0  0  0  0  0  0  0  0
    6.4367  -31.3917   -6.9035 H   0  0  0  0  0  0  0  0  0  0  0  0
  1  2  1  0  0  0  0
  1  6  2  0  0  0  0
  2  8  2  0  0  0  0
  3  6  1  0  0  0  0
  3 13  2  0  0  0  0
  4  7  1  0  0  0  0
  4 14  2  0  0  0  0
  5  7  2  0  0  0  0
  5 16  1  0  0  0  0
  6 15  1  0  0  0  0
  7 20  1  0  0  0  0
  8 13  1  0  0  0  0
  8 17  1  0  0  0  0
  9 10  1  0  0  0  0
  9 11  1  0  0  0  0
 10 12  1  0  0  0  0
 11 17  1  0  0  0  0
 12 17  1  0  0  0  0
 14 16  1  0  0  0  0
 15 20  1  0  0  0  0
 18 20  2  0  0  0  0
 19 20  2  0  0  0  0
  1 21  1  0  0  0  0
  2 22  1  0  0  0  0
  3 23  1  0  0  0  0
  4 24  1  0  0  0  0
  5 25  1  0  0  0  0
  9 26  1  0  0  0  0
  9 27  1  0  0  0  0
 10 28  1  0  0  0  0
 10 29  1  0  0  0  0
 11 30  1  0  0  0  0
 11 31  1  0  0  0  0
 12 32  1  0  0  0  0
 12 33  1  0  0  0  0
 16 34  1  0  0  0  0
M  CHG  1  15  -1
M  END
> <Hybrid2>
-3.228410482406616

> <Hybrid2>
-2.910510

$$$$
C41668748
  -OEChem-02152218493D

 35 36  0     0  0  0  0  0  0999 V2000
   13.7539  -26.9504   -9.4492 C   0  0  0  0  0  0  0  0  0  0  0  0
   12.4685  -26.4813   -9.2023 C   0  0  0  0  0  0  0  0  0  0  0  0
   13.0892  -27.4453  -11.6785 C   0  0  0  0  0  0  0  0  0  0  0  0
   14.0783  -27.4432  -10.7082 C   0  0  0  0  0  0  0  0  0  0  0  0
   11.5515  -26.5263  -10.2401 C   0  0  0  0  0  0  0  0  0  0  0  0
    6.8945  -28.1998   -9.2097 C   0  0  0  0  0  0  0  0  0  0  0  0
    6.2389  -26.0228   -9.0859 C   0  0  0  0  0  0  0  0  0  0  0  0
   15.4279  -27.9446  -10.9995 C   0  0  0  0  0  0  0  0  0  0  0  0
    6.1476  -28.0652   -7.8805 C   0  0  0  0  0  0  0  0  0  0  0  0
    7.0775  -28.3614   -6.7114 C   0  0  0  0  0  0  0  0  0  0  0  0
    4.9044  -28.9451   -7.8737 C   0  0  0  0  0  0  0  0  0  0  0  0
    7.5091  -26.7313  -11.1309 C   0  0  0  0  0  0  0  0  0  0  0  0
    9.0062  -27.0090  -11.1355 C   0  0  0  0  0  0  0  0  0  0  0  0
   11.8296  -26.9980  -11.4761 N   0  0  0  0  0  0  0  0  0  0  0  0
    5.7955  -26.6628   -7.9275 N   0  0  0  0  0  0  0  0  0  0  0  0
    6.8914  -26.9754   -9.8427 N   0  0  0  0  0  0  0  0  0  0  0  0
   15.6842  -28.3928  -12.1809 O   0  5  0  0  0  0  0  0  0  0  0  0
    7.3981  -29.2402   -9.6141 O   0  0  0  0  0  0  0  0  0  0  0  0
    6.0678  -24.8407   -9.3541 O   0  0  0  0  0  0  0  0  0  0  0  0
   16.3159  -27.9218  -10.0650 O   0  0  0  0  0  0  0  0  0  0  0  0
    9.9071  -25.9418   -9.9706 S   0  0  0  0  0  0  0  0  0  0  0  0
   14.4954  -26.9272   -8.6554 H   0  0  0  0  0  0  0  0  0  0  0  0
   12.2122  -26.0955   -8.2207 H   0  0  0  0  0  0  0  0  0  0  0  0
   13.2820  -27.8185  -12.6797 H   0  0  0  0  0  0  0  0  0  0  0  0
    6.5367  -28.2630   -5.7698 H   0  0  0  0  0  0  0  0  0  0  0  0
    7.9138  -27.6619   -6.7130 H   0  0  0  0  0  0  0  0  0  0  0  0
    7.4660  -29.3769   -6.7912 H   0  0  0  0  0  0  0  0  0  0  0  0
    4.3796  -28.8425   -6.9237 H   0  0  0  0  0  0  0  0  0  0  0  0
    5.1855  -29.9894   -8.0110 H   0  0  0  0  0  0  0  0  0  0  0  0
    4.2340  -28.6503   -8.6814 H   0  0  0  0  0  0  0  0  0  0  0  0
    7.0139  -27.3974  -11.8452 H   0  0  0  0  0  0  0  0  0  0  0  0
    7.2832  -25.7007  -11.4240 H   0  0  0  0  0  0  0  0  0  0  0  0
    9.2102  -28.0533  -10.8776 H   0  0  0  0  0  0  0  0  0  0  0  0
    9.4096  -26.8221  -12.1355 H   0  0  0  0  0  0  0  0  0  0  0  0
    5.2799  -26.1871   -7.1935 H   0  0  0  0  0  0  0  0  0  0  0  0
  1  2  2  0  0  0  0
  1  4  1  0  0  0  0
  2  5  1  0  0  0  0
  3  4  2  0  0  0  0
  3 14  1  0  0  0  0
  4  8  1  0  0  0  0
  5 14  2  0  0  0  0
  5 21  1  0  0  0  0
  6  9  1  0  0  0  0
  6 16  1  0  0  0  0
  6 18  2  0  0  0  0
  7 15  1  0  0  0  0
  7 16  1  0  0  0  0
  7 19  2  0  0  0  0
  8 17  1  0  0  0  0
  8 20  2  0  0  0  0
  9 10  1  0  0  0  0
  9 11  1  0  0  0  0
  9 15  1  0  0  0  0
 12 13  1  0  0  0  0
 12 16  1  0  0  0  0
 13 21  1  0  0  0  0
  1 22  1  0  0  0  0
  2 23  1  0  0  0  0
  3 24  1  0  0  0  0
 10 25  1  0  0  0  0
 10 26  1  0  0  0  0
 10 27  1  0  0  0  0
 11 28  1  0  0  0  0
 11 29  1  0  0  0  0
 11 30  1  0  0  0  0
 12 31  1  0  0  0  0
 12 32  1  0  0  0  0
 13 33  1  0  0  0  0
 13 34  1  0  0  0  0
 15 35  1  0  0  0  0
M  CHG  1  17  -1
M  END
> <Hybrid2>
-1.0459343194961548

> <Hybrid2>
-1.045934

$$$$
C41668748
  -OEChem-02152218493D

 35 36  0     0  0  0  0  0  0999 V2000
   12.3613  -27.1248   -9.8786 C   0  0  0  0  0  0  0  0  0  0  0  0
   11.1643  -26.9581   -9.1910 C   0  0  0  0  0  0  0  0  0  0  0  0
   11.3412  -26.1407  -11.7884 C   0  0  0  0  0  0  0  0  0  0  0  0
   12.4597  -26.7110  -11.2023 C   0  0  0  0  0  0  0  0  0  0  0  0
   10.1038  -26.3765   -9.8671 C   0  0  0  0  0  0  0  0  0  0  0  0
    5.5384  -28.4879   -9.3685 C   0  0  0  0  0  0  0  0  0  0  0  0
    5.0706  -26.8904   -7.8149 C   0  0  0  0  0  0  0  0  0  0  0  0
   13.7110  -26.8729  -11.9543 C   0  0  0  0  0  0  0  0  0  0  0  0
    5.0071  -29.2397   -8.1457 C   0  0  0  0  0  0  0  0  0  0  0  0
    6.0744  -30.1690   -7.5830 C   0  0  0  0  0  0  0  0  0  0  0  0
    3.7169  -29.9734   -8.4875 C   0  0  0  0  0  0  0  0  0  0  0  0
    5.9704  -26.1206  -10.0274 C   0  0  0  0  0  0  0  0  0  0  0  0
    7.4260  -26.2821  -10.4443 C   0  0  0  0  0  0  0  0  0  0  0  0
   10.1616  -25.9622  -11.1526 N   0  0  0  0  0  0  0  0  0  0  0  0
    4.7564  -28.1290   -7.2533 N   0  0  0  0  0  0  0  0  0  0  0  0
    5.5326  -27.1375   -9.0922 N   0  0  0  0  0  0  0  0  0  0  0  0
   13.7570  -26.4751  -13.1799 O   0  5  0  0  0  0  0  0  0  0  0  0
    5.8988  -29.0290  -10.4062 O   0  0  0  0  0  0  0  0  0  0  0  0
    4.9496  -25.8069   -7.2582 O   0  0  0  0  0  0  0  0  0  0  0  0
   14.7261  -27.4083  -11.3665 O   0  0  0  0  0  0  0  0  0  0  0  0
    8.5647  -26.1464   -9.0327 S   0  0  0  0  0  0  0  0  0  0  0  0
   13.2112  -27.5770   -9.3748 H   0  0  0  0  0  0  0  0  0  0  0  0
   11.0843  -27.2796   -8.1574 H   0  0  0  0  0  0  0  0  0  0  0  0
   11.3566  -25.7992  -12.8190 H   0  0  0  0  0  0  0  0  0  0  0  0
    5.6867  -30.6996   -6.7130 H   0  0  0  0  0  0  0  0  0  0  0  0
    6.9507  -29.5934   -7.2839 H   0  0  0  0  0  0  0  0  0  0  0  0
    6.3710  -30.8976   -8.3379 H   0  0  0  0  0  0  0  0  0  0  0  0
    3.3465  -30.5055   -7.6110 H   0  0  0  0  0  0  0  0  0  0  0  0
    3.8969  -30.6923   -9.2871 H   0  0  0  0  0  0  0  0  0  0  0  0
    2.9586  -29.2621   -8.8157 H   0  0  0  0  0  0  0  0  0  0  0  0
    5.3278  -26.2108  -10.9094 H   0  0  0  0  0  0  0  0  0  0  0  0
    5.7805  -25.1416   -9.5751 H   0  0  0  0  0  0  0  0  0  0  0  0
    7.5880  -27.2506  -10.9285 H   0  0  0  0  0  0  0  0  0  0  0  0
    7.6906  -25.4972  -11.1596 H   0  0  0  0  0  0  0  0  0  0  0  0
    4.3908  -28.2346   -6.3120 H   0  0  0  0  0  0  0  0  0  0  0  0
  1  2  2  0  0  0  0
  1  4  1  0  0  0  0
  2  5  1  0  0  0  0
  3  4  2  0  0  0  0
  3 14  1  0  0  0  0
  4  8  1  0  0  0  0
  5 14  2  0  0  0  0
  5 21  1  0  0  0  0
  6  9  1  0  0  0  0
  6 16  1  0  0  0  0
  6 18  2  0  0  0  0
  7 15  1  0  0  0  0
  7 16  1  0  0  0  0
  7 19  2  0  0  0  0
  8 17  1  0  0  0  0
  8 20  2  0  0  0  0
  9 10  1  0  0  0  0
  9 11  1  0  0  0  0
  9 15  1  0  0  0  0
 12 13  1  0  0  0  0
 12 16  1  0  0  0  0
 13 21  1  0  0  0  0
  1 22  1  0  0  0  0
  2 23  1  0  0  0  0
  3 24  1  0  0  0  0
 10 25  1  0  0  0  0
 10 26  1  0  0  0  0
 10 27  1  0  0  0  0
 11 28  1  0  0  0  0
 11 29  1  0  0  0  0
 11 30  1  0  0  0  0
 12 31  1  0  0  0  0
 12 32  1  0  0  0  0
 13 33  1  0  0  0  0
 13 34  1  0  0  0  0
 15 35  1  0  0  0  0
M  CHG  1  17  -1
M  END
> <Hybrid2>
-1.0459343194961548

> <Hybrid2>
-0.678721

$$$$
C43428182
  -OEChem-02152218493D

 42 43  0     1  0  0  0  0  0999 V2000
    7.0289  -26.0600   -9.7040 C   0  0  0  0  0  0  0  0  0  0  0  0
    7.3075  -30.8708   -8.8949 C   0  0  0  0  0  0  0  0  0  0  0  0
    9.1246  -26.1822  -11.0317 C   0  0  0  0  0  0  0  0  0  0  0  0
   12.4152  -25.6808  -14.0899 C   0  0  0  0  0  0  0  0  0  0  0  0
   11.0706  -25.7246  -13.3418 C   0  0  0  0  0  0  0  0  0  0  0  0
   13.4413  -26.3443  -13.1658 C   0  0  0  0  0  0  0  0  0  0  0  0
   11.0798  -27.2041   -9.7574 C   0  0  0  0  0  0  0  0  0  0  0  0
   12.3586  -28.0008  -10.0351 C   0  0  0  0  0  0  0  0  0  0  0  0
   11.4595  -26.0451  -11.9003 C   0  0  2  0  0  0  0  0  0  0  0  0
   12.5846  -27.0476  -12.1280 C   0  0  2  0  0  0  0  0  0  0  0  0
    6.5256  -26.4418   -8.3223 C   0  0  0  0  0  0  0  0  0  0  0  0
    5.9088  -30.2545   -8.7869 C   0  0  0  0  0  0  0  0  0  0  0  0
    6.6464  -27.9399   -8.0508 C   0  0  0  0  0  0  0  0  0  0  0  0
    5.8094  -28.7532   -9.0415 C   0  0  0  0  0  0  0  0  0  0  0  0
   10.4791  -26.5818  -10.9560 N   0  0  0  0  0  0  0  0  0  0  0  0
    8.3769  -26.3964   -9.8647 N   0  0  0  0  0  0  0  0  0  0  0  0
    8.0441  -30.3385   -9.7745 O   0  5  0  0  0  0  0  0  0  0  0  0
    6.3183  -25.5343  -10.5562 O   0  0  0  0  0  0  0  0  0  0  0  0
    7.5567  -31.8330   -8.1176 O   0  0  0  0  0  0  0  0  0  0  0  0
    8.6215  -25.6626  -12.0315 O   0  0  0  0  0  0  0  0  0  0  0  0
   13.2526  -27.3078  -10.9091 O   0  0  0  0  0  0  0  0  0  0  0  0
   12.3365  -26.2116  -15.0447 H   0  0  0  0  0  0  0  0  0  0  0  0
   12.7122  -24.6495  -14.3086 H   0  0  0  0  0  0  0  0  0  0  0  0
   10.5411  -24.7722  -13.4379 H   0  0  0  0  0  0  0  0  0  0  0  0
   10.4450  -26.5180  -13.7686 H   0  0  0  0  0  0  0  0  0  0  0  0
   14.0941  -27.0406  -13.7015 H   0  0  0  0  0  0  0  0  0  0  0  0
   14.0884  -25.5930  -12.6973 H   0  0  0  0  0  0  0  0  0  0  0  0
   10.3668  -27.8690   -9.2629 H   0  0  0  0  0  0  0  0  0  0  0  0
   11.3062  -26.3768   -9.0739 H   0  0  0  0  0  0  0  0  0  0  0  0
   12.8889  -28.1863   -9.0950 H   0  0  0  0  0  0  0  0  0  0  0  0
   12.1178  -28.9792  -10.4690 H   0  0  0  0  0  0  0  0  0  0  0  0
   11.8521  -25.1364  -11.4209 H   0  0  0  0  0  0  0  0  0  0  0  0
   12.2098  -27.9887  -12.5575 H   0  0  0  0  0  0  0  0  0  0  0  0
    7.1040  -25.8791   -7.5796 H   0  0  0  0  0  0  0  0  0  0  0  0
    5.4773  -26.1301   -8.2417 H   0  0  0  0  0  0  0  0  0  0  0  0
    5.2300  -30.7861   -9.4653 H   0  0  0  0  0  0  0  0  0  0  0  0
    5.5604  -30.4588   -7.7666 H   0  0  0  0  0  0  0  0  0  0  0  0
    7.6984  -28.2429   -8.1221 H   0  0  0  0  0  0  0  0  0  0  0  0
    6.3276  -28.1512   -7.0232 H   0  0  0  0  0  0  0  0  0  0  0  0
    6.1627  -28.5488  -10.0599 H   0  0  0  0  0  0  0  0  0  0  0  0
    4.7630  -28.4280   -8.9997 H   0  0  0  0  0  0  0  0  0  0  0  0
    8.8423  -26.7802   -9.0507 H   0  0  0  0  0  0  0  0  0  0  0  0
  1 11  1  0  0  0  0
  1 16  1  0  0  0  0
  1 18  2  0  0  0  0
  2 12  1  0  0  0  0
  2 17  1  0  0  0  0
  2 19  2  0  0  0  0
  3 15  1  0  0  0  0
  3 16  1  0  0  0  0
  3 20  2  0  0  0  0
  4  5  1  0  0  0  0
  4  6  1  0  0  0  0
  5  9  1  0  0  0  0
  6 10  1  0  0  0  0
  7  8  1  0  0  0  0
  7 15  1  0  0  0  0
  8 21  1  0  0  0  0
  9 10  1  0  0  0  0
  9 15  1  0  0  0  0
 10 21  1  0  0  0  0
 11 13  1  0  0  0  0
 12 14  1  0  0  0  0
 13 14  1  0  0  0  0
  4 22  1  0  0  0  0
  4 23  1  0  0  0  0
  5 24  1  0  0  0  0
  5 25  1  0  0  0  0
  6 26  1  0  0  0  0
  6 27  1  0  0  0  0
  7 28  1  0  0  0  0
  7 29  1  0  0  0  0
  8 30  1  0  0  0  0
  8 31  1  0  0  0  0
  9 32  1  0  0  0  0
 10 33  1  0  0  0  0
 11 34  1  0  0  0  0
 11 35  1  0  0  0  0
 12 36  1  0  0  0  0
 12 37  1  0  0  0  0
 13 38  1  0  0  0  0
 13 39  1  0  0  0  0
 14 40  1  0  0  0  0
 14 41  1  0  0  0  0
 16 42  1  0  0  0  0
M  CHG  1  17  -1
M  END
> <Hybrid2>
-2.9591519832611084

> <Hybrid2>
-2.959152

$$$$
C43428182
  -OEChem-02152218493D

 42 43  0     1  0  0  0  0  0999 V2000
    6.8466  -26.1700   -9.6484 C   0  0  0  0  0  0  0  0  0  0  0  0
    7.1764  -30.9858   -8.8897 C   0  0  0  0  0  0  0  0  0  0  0  0
    9.0784  -26.2092  -10.7380 C   0  0  0  0  0  0  0  0  0  0  0  0
   12.6695  -25.5592  -13.4053 C   0  0  0  0  0  0  0  0  0  0  0  0
   11.2526  -25.6544  -12.8112 C   0  0  0  0  0  0  0  0  0  0  0  0
   13.6067  -26.2116  -12.3839 C   0  0  0  0  0  0  0  0  0  0  0  0
   10.9109  -27.2008   -9.2716 C   0  0  0  0  0  0  0  0  0  0  0  0
   12.2353  -27.9565   -9.4188 C   0  0  0  0  0  0  0  0  0  0  0  0
   11.4898  -25.9913  -11.3407 C   0  0  2  0  0  0  0  0  0  0  0  0
   12.6622  -26.9578  -11.4585 C   0  0  2  0  0  0  0  0  0  0  0  0
    6.2058  -26.5917   -8.3370 C   0  0  0  0  0  0  0  0  0  0  0  0
    5.7567  -30.4105   -8.9273 C   0  0  0  0  0  0  0  0  0  0  0  0
    6.3401  -28.0908   -8.0775 C   0  0  0  0  0  0  0  0  0  0  0  0
    5.6417  -28.9080   -9.1675 C   0  0  0  0  0  0  0  0  0  0  0  0
   10.4276  -26.5726  -10.5193 N   0  0  0  0  0  0  0  0  0  0  0  0
    8.2136  -26.4661   -9.6644 N   0  0  0  0  0  0  0  0  0  0  0  0
    7.9893  -30.4169   -9.6739 O   0  5  0  0  0  0  0  0  0  0  0  0
    6.2190  -25.6480  -10.5655 O   0  0  0  0  0  0  0  0  0  0  0  0
    7.3668  -31.9554   -8.1049 O   0  0  0  0  0  0  0  0  0  0  0  0
    8.6734  -25.6848  -11.7789 O   0  0  0  0  0  0  0  0  0  0  0  0
   13.1993  -27.2227  -10.1775 O   0  0  0  0  0  0  0  0  0  0  0  0
   12.7121  -26.0738  -14.3711 H   0  0  0  0  0  0  0  0  0  0  0  0
   12.9582  -24.5162  -13.5734 H   0  0  0  0  0  0  0  0  0  0  0  0
   10.7090  -24.7152  -12.9502 H   0  0  0  0  0  0  0  0  0  0  0  0
   10.7015  -26.4564  -13.3170 H   0  0  0  0  0  0  0  0  0  0  0  0
   14.3349  -26.8793  -12.8551 H   0  0  0  0  0  0  0  0  0  0  0  0
   14.1759  -25.4518  -11.8349 H   0  0  0  0  0  0  0  0  0  0  0  0
   10.1677  -27.8944   -8.8696 H   0  0  0  0  0  0  0  0  0  0  0  0
   11.0361  -26.3807   -8.5542 H   0  0  0  0  0  0  0  0  0  0  0  0
   12.6642  -28.1451   -8.4289 H   0  0  0  0  0  0  0  0  0  0  0  0
   12.0727  -28.9328   -9.8921 H   0  0  0  0  0  0  0  0  0  0  0  0
   11.8002  -25.0813  -10.8065 H   0  0  0  0  0  0  0  0  0  0  0  0
   12.3649  -27.9006  -11.9416 H   0  0  0  0  0  0  0  0  0  0  0  0
    6.6821  -26.0275   -7.5262 H   0  0  0  0  0  0  0  0  0  0  0  0
    5.1463  -26.3107   -8.3679 H   0  0  0  0  0  0  0  0  0  0  0  0
    5.1727  -30.9477   -9.6849 H   0  0  0  0  0  0  0  0  0  0  0  0
    5.3043  -30.6437   -7.9551 H   0  0  0  0  0  0  0  0  0  0  0  0
    7.4021  -28.3633   -8.0369 H   0  0  0  0  0  0  0  0  0  0  0  0
    5.9165  -28.3303   -7.0950 H   0  0  0  0  0  0  0  0  0  0  0  0
    6.0987  -28.6746  -10.1372 H   0  0  0  0  0  0  0  0  0  0  0  0
    4.5879  -28.6126   -9.2365 H   0  0  0  0  0  0  0  0  0  0  0  0
    8.5976  -26.8523   -8.8100 H   0  0  0  0  0  0  0  0  0  0  0  0
  1 11  1  0  0  0  0
  1 16  1  0  0  0  0
  1 18  2  0  0  0  0
  2 12  1  0  0  0  0
  2 17  1  0  0  0  0
  2 19  2  0  0  0  0
  3 15  1  0  0  0  0
  3 16  1  0  0  0  0
  3 20  2  0  0  0  0
  4  5  1  0  0  0  0
  4  6  1  0  0  0  0
  5  9  1  0  0  0  0
  6 10  1  0  0  0  0
  7  8  1  0  0  0  0
  7 15  1  0  0  0  0
  8 21  1  0  0  0  0
  9 10  1  0  0  0  0
  9 15  1  0  0  0  0
 10 21  1  0  0  0  0
 11 13  1  0  0  0  0
 12 14  1  0  0  0  0
 13 14  1  0  0  0  0
  4 22  1  0  0  0  0
  4 23  1  0  0  0  0
  5 24  1  0  0  0  0
  5 25  1  0  0  0  0
  6 26  1  0  0  0  0
  6 27  1  0  0  0  0
  7 28  1  0  0  0  0
  7 29  1  0  0  0  0
  8 30  1  0  0  0  0
  8 31  1  0  0  0  0
  9 32  1  0  0  0  0
 10 33  1  0  0  0  0
 11 34  1  0  0  0  0
 11 35  1  0  0  0  0
 12 36  1  0  0  0  0
 12 37  1  0  0  0  0
 13 38  1  0  0  0  0
 13 39  1  0  0  0  0
 14 40  1  0  0  0  0
 14 41  1  0  0  0  0
 16 42  1  0  0  0  0
M  CHG  1  17  -1
M  END
> <Hybrid2>
-2.9591519832611084

> <Hybrid2>
-2.834010

$$$$
C43706936
  -OEChem-02152218493D

 36 37  0     1  0  0  0  0  0999 V2000
    6.2083  -28.0265   -8.8240 C   0  0  0  0  0  0  0  0  0  0  0  0
    6.5315  -29.3645   -8.7369 C   0  0  0  0  0  0  0  0  0  0  0  0
    8.2651  -27.9186   -9.5774 C   0  0  0  0  0  0  0  0  0  0  0  0
   14.4284  -27.8532  -11.4838 C   0  0  0  0  0  0  0  0  0  0  0  0
    9.8739  -26.1646  -10.4199 C   0  0  0  0  0  0  0  0  0  0  0  0
   11.6867  -24.7368  -11.3363 C   0  0  0  0  0  0  0  0  0  0  0  0
   12.1273  -27.1634  -11.0985 C   0  0  0  0  0  0  0  0  0  0  0  0
   12.6548  -24.8809  -12.5015 C   0  0  0  0  0  0  0  0  0  0  0  0
   13.5614  -26.6555  -11.1638 C   0  0  2  0  0  0  0  0  0  0  0  0
    5.7240  -30.5100   -8.2724 C   0  0  0  0  0  0  0  0  0  0  0  0
    3.8231  -27.6543   -9.5015 C   0  0  0  0  0  0  0  0  0  0  0  0
    4.9144  -27.4185   -8.4524 C   0  0  0  0  0  0  0  0  0  0  0  0
    7.2013  -27.1959   -9.3054 N   0  0  0  0  0  0  0  0  0  0  0  0
   11.1847  -26.0497  -10.9316 N   0  0  0  0  0  0  0  0  0  0  0  0
    9.5077  -27.4713  -10.0908 N   0  0  0  0  0  0  0  0  0  0  0  0
   14.1667  -28.4321  -12.5745 O   0  5  0  0  0  0  0  0  0  0  0  0
   15.3052  -28.1197  -10.6147 O   0  0  0  0  0  0  0  0  0  0  0  0
    9.1379  -25.1822  -10.3047 O   0  0  0  0  0  0  0  0  0  0  0  0
   13.7815  -25.7020  -12.1965 O   0  0  0  0  0  0  0  0  0  0  0  0
    8.1409  -29.6040   -9.2789 S   0  0  0  0  0  0  0  0  0  0  0  0
   12.1911  -24.2169  -10.5256 H   0  0  0  0  0  0  0  0  0  0  0  0
   10.8141  -24.1544  -11.6418 H   0  0  0  0  0  0  0  0  0  0  0  0
   11.8441  -27.6566  -12.0363 H   0  0  0  0  0  0  0  0  0  0  0  0
   12.0140  -27.8989  -10.2967 H   0  0  0  0  0  0  0  0  0  0  0  0
   12.1364  -25.3392  -13.3610 H   0  0  0  0  0  0  0  0  0  0  0  0
   13.0106  -23.8922  -12.8472 H   0  0  0  0  0  0  0  0  0  0  0  0
   13.8938  -26.2433  -10.1865 H   0  0  0  0  0  0  0  0  0  0  0  0
    5.1625  -30.9635   -9.1053 H   0  0  0  0  0  0  0  0  0  0  0  0
    6.3481  -31.2991   -7.8195 H   0  0  0  0  0  0  0  0  0  0  0  0
    4.9956  -30.2152   -7.4978 H   0  0  0  0  0  0  0  0  0  0  0  0
    4.1393  -27.2812  -10.4815 H   0  0  0  0  0  0  0  0  0  0  0  0
    2.8939  -27.1445   -9.2283 H   0  0  0  0  0  0  0  0  0  0  0  0
    3.6065  -28.7232   -9.6029 H   0  0  0  0  0  0  0  0  0  0  0  0
    4.5552  -27.8088   -7.4808 H   0  0  0  0  0  0  0  0  0  0  0  0
    5.0176  -26.3277   -8.2946 H   0  0  0  0  0  0  0  0  0  0  0  0
   10.2409  -28.2341  -10.2382 H   0  0  0  0  0  0  0  0  0  0  0  0
  1  2  2  0  0  0  0
  1 12  1  0  0  0  0
  1 13  1  0  0  0  0
  2 10  1  0  0  0  0
  2 20  1  0  0  0  0
  3 13  2  0  0  0  0
  3 15  1  0  0  0  0
  3 20  1  0  0  0  0
  4  9  1  0  0  0  0
  4 16  1  0  0  0  0
  4 17  2  0  0  0  0
  5 14  1  0  0  0  0
  5 15  1  0  0  0  0
  5 18  2  0  0  0  0
  6  8  1  0  0  0  0
  6 14  1  0  0  0  0
  7  9  1  0  0  0  0
  7 14  1  0  0  0  0
  8 19  1  0  0  0  0
  9 19  1  0  0  0  0
 11 12  1  0  0  0  0
  6 21  1  0  0  0  0
  6 22  1  0  0  0  0
  7 23  1  0  0  0  0
  7 24  1  0  0  0  0
  8 25  1  0  0  0  0
  8 26  1  0  0  0  0
  9 27  1  0  0  0  0
 10 28  1  0  0  0  0
 10 29  1  0  0  0  0
 10 30  1  0  0  0  0
 11 31  1  0  0  0  0
 11 32  1  0  0  0  0
 11 33  1  0  0  0  0
 12 34  1  0  0  0  0
 12 35  1  0  0  0  0
 15 36  1  0  0  0  0
M  CHG  1  16  -1
M  END
> <Hybrid2>
-4.093646049499512

> <Hybrid2>
-4.093646

$$$$
C43706936
  -OEChem-02152218493D

 36 37  0     1  0  0  0  0  0999 V2000
   12.5722  -26.6984  -11.7447 C   0  0  0  0  0  0  0  0  0  0  0  0
   13.2065  -27.5746  -10.8891 C   0  0  0  0  0  0  0  0  0  0  0  0
   10.8407  -27.2903  -10.5358 C   0  0  0  0  0  0  0  0  0  0  0  0
    5.8598  -30.2748   -8.1303 C   0  0  0  0  0  0  0  0  0  0  0  0
    8.3740  -26.7855  -10.4152 C   0  0  0  0  0  0  0  0  0  0  0  0
    6.0388  -26.2923   -9.4707 C   0  0  0  0  0  0  0  0  0  0  0  0
    7.2014  -28.4146   -8.9566 C   0  0  0  0  0  0  0  0  0  0  0  0
    4.7455  -27.0975   -9.5443 C   0  0  0  0  0  0  0  0  0  0  0  0
    5.8585  -29.1114   -9.0966 C   0  0  2  0  0  0  0  0  0  0  0  0
   14.6245  -27.9808  -10.8227 C   0  0  0  0  0  0  0  0  0  0  0  0
   14.0010  -24.7242  -12.3343 C   0  0  0  0  0  0  0  0  0  0  0  0
   13.2093  -25.9355  -12.8374 C   0  0  0  0  0  0  0  0  0  0  0  0
   11.2156  -26.5345  -11.5439 N   0  0  0  0  0  0  0  0  0  0  0  0
    7.2147  -27.1470   -9.6925 N   0  0  0  0  0  0  0  0  0  0  0  0
    9.5388  -27.4270   -9.9929 N   0  0  0  0  0  0  0  0  0  0  0  0
    4.7347  -30.5696   -7.6401 O   0  5  0  0  0  0  0  0  0  0  0  0
    6.9910  -30.8026   -7.9383 O   0  0  0  0  0  0  0  0  0  0  0  0
    8.3300  -25.9857  -11.3532 O   0  0  0  0  0  0  0  0  0  0  0  0
    4.8052  -28.2419   -8.6954 O   0  0  0  0  0  0  0  0  0  0  0  0
   12.0681  -28.2239   -9.7828 S   0  0  0  0  0  0  0  0  0  0  0  0
    5.9820  -25.4750  -10.1909 H   0  0  0  0  0  0  0  0  0  0  0  0
    6.1591  -25.8632   -8.4693 H   0  0  0  0  0  0  0  0  0  0  0  0
    7.4004  -28.1542   -7.9087 H   0  0  0  0  0  0  0  0  0  0  0  0
    8.0142  -29.0704   -9.2862 H   0  0  0  0  0  0  0  0  0  0  0  0
    3.9054  -26.4797   -9.2114 H   0  0  0  0  0  0  0  0  0  0  0  0
    4.5338  -27.4148  -10.5724 H   0  0  0  0  0  0  0  0  0  0  0  0
    5.6873  -29.4837  -10.1128 H   0  0  0  0  0  0  0  0  0  0  0  0
   15.1967  -27.3167  -10.1547 H   0  0  0  0  0  0  0  0  0  0  0  0
   14.7419  -29.0128  -10.4508 H   0  0  0  0  0  0  0  0  0  0  0  0
   15.1080  -27.9571  -11.8141 H   0  0  0  0  0  0  0  0  0  0  0  0
   13.3611  -24.0600  -11.7436 H   0  0  0  0  0  0  0  0  0  0  0  0
   14.4125  -24.1459  -13.1674 H   0  0  0  0  0  0  0  0  0  0  0  0
   14.8339  -25.0418  -11.6978 H   0  0  0  0  0  0  0  0  0  0  0  0
   13.8910  -26.5780  -13.4271 H   0  0  0  0  0  0  0  0  0  0  0  0
   12.4565  -25.5819  -13.5679 H   0  0  0  0  0  0  0  0  0  0  0  0
    9.4557  -28.0992   -9.1695 H   0  0  0  0  0  0  0  0  0  0  0  0
  1  2  2  0  0  0  0
  1 12  1  0  0  0  0
  1 13  1  0  0  0  0
  2 10  1  0  0  0  0
  2 20  1  0  0  0  0
  3 13  2  0  0  0  0
  3 15  1  0  0  0  0
  3 20  1  0  0  0  0
  4  9  1  0  0  0  0
  4 16  1  0  0  0  0
  4 17  2  0  0  0  0
  5 14  1  0  0  0  0
  5 15  1  0  0  0  0
  5 18  2  0  0  0  0
  6  8  1  0  0  0  0
  6 14  1  0  0  0  0
  7  9  1  0  0  0  0
  7 14  1  0  0  0  0
  8 19  1  0  0  0  0
  9 19  1  0  0  0  0
 11 12  1  0  0  0  0
  6 21  1  0  0  0  0
  6 22  1  0  0  0  0
  7 23  1  0  0  0  0
  7 24  1  0  0  0  0
  8 25  1  0  0  0  0
  8 26  1  0  0  0  0
  9 27  1  0  0  0  0
 10 28  1  0  0  0  0
 10 29  1  0  0  0  0
 10 30  1  0  0  0  0
 11 31  1  0  0  0  0
 11 32  1  0  0  0  0
 11 33  1  0  0  0  0
 12 34  1  0  0  0  0
 12 35  1  0  0  0  0
 15 36  1  0  0  0  0
M  CHG  1  16  -1
M  END
> <Hybrid2>
-4.093646049499512

> <Hybrid2>
-3.843878

$$$$
C44888642
  -OEChem-02152218493D

 31 33  0     1  0  0  0  0  0999 V2000
    6.2644  -29.7332   -8.4506 C   0  0  0  0  0  0  0  0  0  0  0  0
    7.6668  -29.9312   -8.4822 C   0  0  0  0  0  0  0  0  0  0  0  0
    6.5213  -25.4713   -9.2627 C   0  0  0  0  0  0  0  0  0  0  0  0
    6.0218  -28.4422   -8.8652 C   0  0  0  0  0  0  0  0  0  0  0  0
    8.2387  -28.7552   -8.9150 C   0  0  0  0  0  0  0  0  0  0  0  0
    6.9131  -24.2788   -9.8303 C   0  0  0  0  0  0  0  0  0  0  0  0
    7.4043  -26.5386   -9.5966 C   0  0  0  0  0  0  0  0  0  0  0  0
    8.4373  -26.1211  -10.4068 C   0  0  0  0  0  0  0  0  0  0  0  0
   12.4914  -26.5220  -12.4127 C   0  0  0  0  0  0  0  0  0  0  0  0
    9.5206  -26.8733  -10.9564 C   0  0  0  0  0  0  0  0  0  0  0  0
   13.1178  -27.1074  -10.0328 C   0  0  0  0  0  0  0  0  0  0  0  0
   12.0311  -27.1309  -11.1058 C   0  0  1  0  0  0  0  0  0  0  0  0
   12.5297  -27.2075  -13.5711 N   0  5  0  0  0  0  0  0  0  0  0  0
   12.9009  -25.2441  -12.5255 N   0  0  0  0  0  0  0  0  0  0  0  0
   12.9931  -26.3008  -14.4675 N   0  0  0  0  0  0  0  0  0  0  0  0
   13.2161  -25.1212  -13.8394 N   0  0  0  0  0  0  0  0  0  0  0  0
    7.2293  -27.8571   -9.1445 N   0  0  0  0  0  0  0  0  0  0  0  0
   10.8344  -26.4863  -10.6149 N   0  0  0  0  0  0  0  0  0  0  0  0
    9.3211  -27.8381  -11.7370 O   0  0  0  0  0  0  0  0  0  0  0  0
    8.3402  -24.4487  -10.7614 S   0  0  0  0  0  0  0  0  0  0  0  0
    5.5129  -30.4518   -8.1554 H   0  0  0  0  0  0  0  0  0  0  0  0
    8.2028  -30.8318   -8.2176 H   0  0  0  0  0  0  0  0  0  0  0  0
    5.6411  -25.5656   -8.6389 H   0  0  0  0  0  0  0  0  0  0  0  0
    5.0925  -27.8996   -8.9806 H   0  0  0  0  0  0  0  0  0  0  0  0
    9.2758  -28.4899   -9.0750 H   0  0  0  0  0  0  0  0  0  0  0  0
    6.4294  -23.3162   -9.7432 H   0  0  0  0  0  0  0  0  0  0  0  0
   13.4394  -26.0822   -9.8193 H   0  0  0  0  0  0  0  0  0  0  0  0
   12.7464  -27.5477   -9.1006 H   0  0  0  0  0  0  0  0  0  0  0  0
   14.0010  -27.6834  -10.3311 H   0  0  0  0  0  0  0  0  0  0  0  0
   11.7512  -28.1778  -11.2759 H   0  0  0  0  0  0  0  0  0  0  0  0
   10.9586  -25.6641  -10.0332 H   0  0  0  0  0  0  0  0  0  0  0  0
  1  2  1  0  0  0  0
  1  4  2  0  0  0  0
  2  5  2  0  0  0  0
  3  6  2  0  0  0  0
  3  7  1  0  0  0  0
  4 17  1  0  0  0  0
  5 17  1  0  0  0  0
  6 20  1  0  0  0  0
  7  8  2  0  0  0  0
  7 17  1  0  0  0  0
  8 10  1  0  0  0  0
  8 20  1  0  0  0  0
  9 12  1  0  0  0  0
  9 13  1  0  0  0  0
  9 14  2  0  0  0  0
 10 18  1  0  0  0  0
 10 19  2  0  0  0  0
 11 12  1  0  0  0  0
 12 18  1  0  0  0  0
 13 15  1  0  0  0  0
 14 16  1  0  0  0  0
 15 16  2  0  0  0  0
  1 21  1  0  0  0  0
  2 22  1  0  0  0  0
  3 23  1  0  0  0  0
  4 24  1  0  0  0  0
  5 25  1  0  0  0  0
  6 26  1  0  0  0  0
 11 27  1  0  0  0  0
 11 28  1  0  0  0  0
 11 29  1  0  0  0  0
 12 30  1  0  0  0  0
 18 31  1  0  0  0  0
M  CHG  1  13  -1
M  END
> <Hybrid2>
-4.412045001983643

> <Hybrid2>
-4.412045

$$$$
C44888642
  -OEChem-02152218493D

 31 33  0     1  0  0  0  0  0999 V2000
    5.1424  -25.4190   -8.7978 C   0  0  0  0  0  0  0  0  0  0  0  0
    5.7858  -24.9778   -9.9804 C   0  0  0  0  0  0  0  0  0  0  0  0
    7.0460  -29.3259   -8.8321 C   0  0  0  0  0  0  0  0  0  0  0  0
    5.7082  -26.6249   -8.4470 C   0  0  0  0  0  0  0  0  0  0  0  0
    6.7251  -25.9277  -10.3164 C   0  0  0  0  0  0  0  0  0  0  0  0
    8.0171  -30.2963   -8.9458 C   0  0  0  0  0  0  0  0  0  0  0  0
    7.4720  -28.0769   -9.3692 C   0  0  0  0  0  0  0  0  0  0  0  0
    8.7528  -28.1401   -9.8727 C   0  0  0  0  0  0  0  0  0  0  0  0
   12.2666  -26.6528  -12.3347 C   0  0  0  0  0  0  0  0  0  0  0  0
    9.5369  -27.1177  -10.4901 C   0  0  0  0  0  0  0  0  0  0  0  0
   10.4133  -26.4486  -14.0442 C   0  0  0  0  0  0  0  0  0  0  0  0
   10.7917  -26.4032  -12.5652 C   0  0  1  0  0  0  0  0  0  0  0  0
   13.0820  -25.7561  -11.7477 N   0  5  0  0  0  0  0  0  0  0  0  0
   12.8858  -27.7922  -12.6974 N   0  0  0  0  0  0  0  0  0  0  0  0
   14.2899  -26.3735  -11.7423 N   0  0  0  0  0  0  0  0  0  0  0  0
   14.1722  -27.5967  -12.3129 N   0  0  0  0  0  0  0  0  0  0  0  0
    6.6688  -26.9244   -9.3775 N   0  0  0  0  0  0  0  0  0  0  0  0
    9.9752  -27.3301  -11.8149 N   0  0  0  0  0  0  0  0  0  0  0  0
    9.8494  -26.0675   -9.8741 O   0  0  0  0  0  0  0  0  0  0  0  0
    9.4357  -29.7006   -9.6974 S   0  0  0  0  0  0  0  0  0  0  0  0
    4.3510  -24.9146   -8.2615 H   0  0  0  0  0  0  0  0  0  0  0  0
    5.5865  -24.0680  -10.5288 H   0  0  0  0  0  0  0  0  0  0  0  0
    6.0780  -29.5110   -8.3831 H   0  0  0  0  0  0  0  0  0  0  0  0
    5.5024  -27.2871   -7.6162 H   0  0  0  0  0  0  0  0  0  0  0  0
    7.4219  -25.9718  -11.1435 H   0  0  0  0  0  0  0  0  0  0  0  0
    7.9616  -31.3264   -8.6231 H   0  0  0  0  0  0  0  0  0  0  0  0
   10.6512  -27.4240  -14.4826 H   0  0  0  0  0  0  0  0  0  0  0  0
    9.3392  -26.2724  -14.1713 H   0  0  0  0  0  0  0  0  0  0  0  0
   10.9362  -25.6805  -14.6251 H   0  0  0  0  0  0  0  0  0  0  0  0
   10.5315  -25.4082  -12.1836 H   0  0  0  0  0  0  0  0  0  0  0  0
    9.7573  -28.2165  -12.2582 H   0  0  0  0  0  0  0  0  0  0  0  0
  1  2  1  0  0  0  0
  1  4  2  0  0  0  0
  2  5  2  0  0  0  0
  3  6  2  0  0  0  0
  3  7  1  0  0  0  0
  4 17  1  0  0  0  0
  5 17  1  0  0  0  0
  6 20  1  0  0  0  0
  7  8  2  0  0  0  0
  7 17  1  0  0  0  0
  8 10  1  0  0  0  0
  8 20  1  0  0  0  0
  9 12  1  0  0  0  0
  9 13  1  0  0  0  0
  9 14  2  0  0  0  0
 10 18  1  0  0  0  0
 10 19  2  0  0  0  0
 11 12  1  0  0  0  0
 12 18  1  0  0  0  0
 13 15  1  0  0  0  0
 14 16  1  0  0  0  0
 15 16  2  0  0  0  0
  1 21  1  0  0  0  0
  2 22  1  0  0  0  0
  3 23  1  0  0  0  0
  4 24  1  0  0  0  0
  5 25  1  0  0  0  0
  6 26  1  0  0  0  0
 11 27  1  0  0  0  0
 11 28  1  0  0  0  0
 11 29  1  0  0  0  0
 12 30  1  0  0  0  0
 18 31  1  0  0  0  0
M  CHG  1  13  -1
M  END
> <Hybrid2>
-4.412045001983643

> <Hybrid2>
-3.058070

$$$$
C44930309
  -OEChem-02152218493D

 30 31  0     1  0  0  0  0  0999 V2000
    5.7851  -28.4357   -9.3174 C   0  0  0  0  0  0  0  0  0  0  0  0
    5.7991  -27.1108   -9.7534 C   0  0  0  0  0  0  0  0  0  0  0  0
    8.1879  -28.3805   -9.0722 C   0  0  0  0  0  0  0  0  0  0  0  0
    6.9795  -29.0705   -8.9768 C   0  0  0  0  0  0  0  0  0  0  0  0
    7.0076  -26.4207   -9.8487 C   0  0  0  0  0  0  0  0  0  0  0  0
    8.2020  -27.0556   -9.5082 C   0  0  0  0  0  0  0  0  0  0  0  0
   12.1183  -26.8164  -12.1090 C   0  0  0  0  0  0  0  0  0  0  0  0
    6.9642  -30.4872   -8.5111 C   0  0  0  0  0  0  0  0  0  0  0  0
   10.0301  -27.2431  -13.4690 C   0  0  0  0  0  0  0  0  0  0  0  0
   10.6291  -27.0843  -12.0731 C   0  0  2  0  0  0  0  0  0  0  0  0
   13.0265  -27.6301  -11.5377 N   0  5  0  0  0  0  0  0  0  0  0  0
   12.6585  -25.7421  -12.7152 N   0  0  0  0  0  0  0  0  0  0  0  0
   14.2123  -27.0267  -11.8031 N   0  0  0  0  0  0  0  0  0  0  0  0
   13.9913  -25.8925  -12.5104 N   0  0  0  0  0  0  0  0  0  0  0  0
    9.9174  -26.0413  -11.3205 N   0  0  0  0  0  0  0  0  0  0  0  0
    9.5513  -24.8680   -9.0564 O   0  0  0  0  0  0  0  0  0  0  0  0
   10.7652  -27.0697   -9.1167 O   0  0  0  0  0  0  0  0  0  0  0  0
    7.0091  -25.1485  -10.2709 F   0  0  0  0  0  0  0  0  0  0  0  0
    9.7180  -26.1970   -9.6303 S   0  0  0  0  0  0  0  0  0  0  0  0
    4.8387  -28.9654   -9.2465 H   0  0  0  0  0  0  0  0  0  0  0  0
    4.8691  -26.6169  -10.0189 H   0  0  0  0  0  0  0  0  0  0  0  0
    9.1182  -28.8774   -8.8075 H   0  0  0  0  0  0  0  0  0  0  0  0
    7.0670  -31.1705   -9.3629 H   0  0  0  0  0  0  0  0  0  0  0  0
    7.7828  -30.6840   -7.8066 H   0  0  0  0  0  0  0  0  0  0  0  0
    6.0296  -30.7239   -7.9859 H   0  0  0  0  0  0  0  0  0  0  0  0
   10.1836  -26.3397  -14.0694 H   0  0  0  0  0  0  0  0  0  0  0  0
   10.4982  -28.0833  -13.9943 H   0  0  0  0  0  0  0  0  0  0  0  0
    8.9538  -27.4459  -13.4328 H   0  0  0  0  0  0  0  0  0  0  0  0
   10.4445  -28.0155  -11.5235 H   0  0  0  0  0  0  0  0  0  0  0  0
    9.9308  -25.1001  -11.7321 H   0  0  0  0  0  0  0  0  0  0  0  0
  1  2  2  0  0  0  0
  1  4  1  0  0  0  0
  2  5  1  0  0  0  0
  3  4  2  0  0  0  0
  3  6  1  0  0  0  0
  4  8  1  0  0  0  0
  5  6  2  0  0  0  0
  5 18  1  0  0  0  0
  6 19  1  0  0  0  0
  7 10  1  0  0  0  0
  7 11  1  0  0  0  0
  7 12  2  0  0  0  0
  9 10  1  0  0  0  0
 10 15  1  0  0  0  0
 11 13  1  0  0  0  0
 12 14  1  0  0  0  0
 13 14  2  0  0  0  0
 15 19  1  0  0  0  0
 16 19  2  0  0  0  0
 17 19  2  0  0  0  0
  1 20  1  0  0  0  0
  2 21  1  0  0  0  0
  3 22  1  0  0  0  0
  8 23  1  0  0  0  0
  8 24  1  0  0  0  0
  8 25  1  0  0  0  0
  9 26  1  0  0  0  0
  9 27  1  0  0  0  0
  9 28  1  0  0  0  0
 10 29  1  0  0  0  0
 15 30  1  0  0  0  0
M  CHG  1  11  -1
M  END
> <Hybrid2>
-4.26964807510376

> <Hybrid2>
-4.269648

$$$$
C44930309
  -OEChem-02152218493D

 30 31  0     1  0  0  0  0  0999 V2000
    6.3479  -27.8484   -9.3795 C   0  0  0  0  0  0  0  0  0  0  0  0
    7.6035  -28.4409   -9.2457 C   0  0  0  0  0  0  0  0  0  0  0  0
    7.3999  -25.7332   -9.8855 C   0  0  0  0  0  0  0  0  0  0  0  0
    6.2461  -26.4945   -9.6995 C   0  0  0  0  0  0  0  0  0  0  0  0
    8.7573  -27.6796   -9.4317 C   0  0  0  0  0  0  0  0  0  0  0  0
    8.6556  -26.3257   -9.7517 C   0  0  0  0  0  0  0  0  0  0  0  0
   12.7018  -26.2488  -12.1560 C   0  0  0  0  0  0  0  0  0  0  0  0
    4.9035  -25.8612   -9.8422 C   0  0  0  0  0  0  0  0  0  0  0  0
   10.7530  -27.1486  -13.4919 C   0  0  0  0  0  0  0  0  0  0  0  0
   11.2418  -26.6472  -12.1346 C   0  0  2  0  0  0  0  0  0  0  0  0
   13.6360  -26.8346  -11.3830 N   0  5  0  0  0  0  0  0  0  0  0  0
   13.1876  -25.2756  -12.9498 N   0  0  0  0  0  0  0  0  0  0  0  0
   14.7811  -26.1865  -11.7138 N   0  0  0  0  0  0  0  0  0  0  0  0
   14.5118  -25.2500  -12.6550 N   0  0  0  0  0  0  0  0  0  0  0  0
   10.3952  -25.5456  -11.6545 N   0  0  0  0  0  0  0  0  0  0  0  0
    9.7803  -23.9713   -9.7104 O   0  0  0  0  0  0  0  0  0  0  0  0
   11.1788  -26.0090   -9.2454 O   0  0  0  0  0  0  0  0  0  0  0  0
    9.9586  -28.2593   -9.2985 F   0  0  0  0  0  0  0  0  0  0  0  0
   10.0976  -25.3674   -9.9811 S   0  0  0  0  0  0  0  0  0  0  0  0
    5.4543  -28.4495   -9.2325 H   0  0  0  0  0  0  0  0  0  0  0  0
    7.6824  -29.4949   -8.9962 H   0  0  0  0  0  0  0  0  0  0  0  0
    7.3187  -24.6776  -10.1336 H   0  0  0  0  0  0  0  0  0  0  0  0
    4.5649  -25.4620   -8.8782 H   0  0  0  0  0  0  0  0  0  0  0  0
    4.9256  -25.0399  -10.5703 H   0  0  0  0  0  0  0  0  0  0  0  0
    4.1583  -26.5833  -10.2008 H   0  0  0  0  0  0  0  0  0  0  0  0
   10.8686  -26.3781  -14.2621 H   0  0  0  0  0  0  0  0  0  0  0  0
   11.3250  -28.0295  -13.8046 H   0  0  0  0  0  0  0  0  0  0  0  0
    9.6979  -27.4433  -13.4644 H   0  0  0  0  0  0  0  0  0  0  0  0
   11.1011  -27.4582  -11.4095 H   0  0  0  0  0  0  0  0  0  0  0  0
   10.3557  -24.7131  -12.2551 H   0  0  0  0  0  0  0  0  0  0  0  0
  1  2  2  0  0  0  0
  1  4  1  0  0  0  0
  2  5  1  0  0  0  0
  3  4  2  0  0  0  0
  3  6  1  0  0  0  0
  4  8  1  0  0  0  0
  5  6  2  0  0  0  0
  5 18  1  0  0  0  0
  6 19  1  0  0  0  0
  7 10  1  0  0  0  0
  7 11  1  0  0  0  0
  7 12  2  0  0  0  0
  9 10  1  0  0  0  0
 10 15  1  0  0  0  0
 11 13  1  0  0  0  0
 12 14  1  0  0  0  0
 13 14  2  0  0  0  0
 15 19  1  0  0  0  0
 16 19  2  0  0  0  0
 17 19  2  0  0  0  0
  1 20  1  0  0  0  0
  2 21  1  0  0  0  0
  3 22  1  0  0  0  0
  8 23  1  0  0  0  0
  8 24  1  0  0  0  0
  8 25  1  0  0  0  0
  9 26  1  0  0  0  0
  9 27  1  0  0  0  0
  9 28  1  0  0  0  0
 10 29  1  0  0  0  0
 15 30  1  0  0  0  0
M  CHG  1  11  -1
M  END
> <Hybrid2>
-4.26964807510376

> <Hybrid2>
-3.313364

$$$$
C47975282
  -OEChem-02152218493D

 35 36  0     1  0  0  0  0  0999 V2000
    9.8290  -28.0539   -9.9954 C   0  0  0  0  0  0  0  0  0  0  0  0
    7.9781  -25.9625   -9.6219 C   0  0  0  0  0  0  0  0  0  0  0  0
    8.5141  -28.3523   -9.5770 C   0  0  0  0  0  0  0  0  0  0  0  0
   10.2006  -26.7252  -10.2203 C   0  0  0  0  0  0  0  0  0  0  0  0
    9.2855  -25.6946  -10.0354 C   0  0  0  0  0  0  0  0  0  0  0  0
    7.6118  -27.2994   -9.3977 C   0  0  0  0  0  0  0  0  0  0  0  0
    6.7490  -29.5175   -8.9497 C   0  0  0  0  0  0  0  0  0  0  0  0
   13.6066  -27.1253  -11.7511 C   0  0  0  0  0  0  0  0  0  0  0  0
    5.8900  -30.6679   -8.5938 C   0  0  0  0  0  0  0  0  0  0  0  0
   12.0470  -24.7547  -13.1115 C   0  0  0  0  0  0  0  0  0  0  0  0
   11.9204  -26.9073  -14.3899 C   0  0  0  0  0  0  0  0  0  0  0  0
   12.0709  -26.9868  -11.8509 C   0  0  2  0  0  0  0  0  0  0  0  0
   11.5510  -26.2047  -13.0783 C   0  0  0  0  0  0  0  0  0  0  0  0
    8.0053  -29.6164   -9.3163 N   0  0  0  0  0  0  0  0  0  0  0  0
   11.4956  -26.4627  -10.6296 N   0  0  0  0  0  0  0  0  0  0  0  0
    9.6572  -24.3387  -10.2622 N   0  3  0  0  0  0  0  0  0  0  0  0
   14.2551  -26.0489  -11.6259 O   0  5  0  0  0  0  0  0  0  0  0  0
   10.1272  -23.6739   -9.3101 O   0  5  0  0  0  0  0  0  0  0  0  0
   14.0410  -28.3134  -11.7766 O   0  0  0  0  0  0  0  0  0  0  0  0
    9.5019  -23.8534  -11.4068 O   0  0  0  0  0  0  0  0  0  0  0  0
    6.0935  -27.9387   -8.8890 S   0  0  0  0  0  0  0  0  0  0  0  0
   10.5433  -28.8608  -10.1392 H   0  0  0  0  0  0  0  0  0  0  0  0
    7.2588  -25.1611   -9.4758 H   0  0  0  0  0  0  0  0  0  0  0  0
    5.9543  -30.8897   -7.5170 H   0  0  0  0  0  0  0  0  0  0  0  0
    4.8314  -30.4810   -8.8374 H   0  0  0  0  0  0  0  0  0  0  0  0
    6.1756  -31.5794   -9.1440 H   0  0  0  0  0  0  0  0  0  0  0  0
   13.1413  -24.7262  -13.1560 H   0  0  0  0  0  0  0  0  0  0  0  0
   11.7385  -24.2007  -12.2186 H   0  0  0  0  0  0  0  0  0  0  0  0
   11.6684  -24.2215  -13.9887 H   0  0  0  0  0  0  0  0  0  0  0  0
   13.0086  -26.9702  -14.4997 H   0  0  0  0  0  0  0  0  0  0  0  0
   11.5315  -26.3536  -15.2509 H   0  0  0  0  0  0  0  0  0  0  0  0
   11.5224  -27.9266  -14.4311 H   0  0  0  0  0  0  0  0  0  0  0  0
   11.7074  -28.0209  -11.9244 H   0  0  0  0  0  0  0  0  0  0  0  0
   10.4544  -26.1769  -13.0341 H   0  0  0  0  0  0  0  0  0  0  0  0
   12.0772  -25.8742  -10.0473 H   0  0  0  0  0  0  0  0  0  0  0  0
  1  3  1  0  0  0  0
  1  4  2  0  0  0  0
  2  5  2  0  0  0  0
  2  6  1  0  0  0  0
  3  6  2  0  0  0  0
  3 14  1  0  0  0  0
  4  5  1  0  0  0  0
  4 15  1  0  0  0  0
  5 16  1  0  0  0  0
  6 21  1  0  0  0  0
  7  9  1  0  0  0  0
  7 14  2  0  0  0  0
  7 21  1  0  0  0  0
  8 12  1  0  0  0  0
  8 17  1  0  0  0  0
  8 19  2  0  0  0  0
 10 13  1  0  0  0  0
 11 13  1  0  0  0  0
 12 13  1  0  0  0  0
 12 15  1  0  0  0  0
 16 18  1  0  0  0  0
 16 20  2  0  0  0  0
  1 22  1  0  0  0  0
  2 23  1  0  0  0  0
  9 24  1  0  0  0  0
  9 25  1  0  0  0  0
  9 26  1  0  0  0  0
 10 27  1  0  0  0  0
 10 28  1  0  0  0  0
 10 29  1  0  0  0  0
 11 30  1  0  0  0  0
 11 31  1  0  0  0  0
 11 32  1  0  0  0  0
 12 33  1  0  0  0  0
 13 34  1  0  0  0  0
 15 35  1  0  0  0  0
M  CHG  3  16   1  17  -1  18  -1
M  END
> <Hybrid2>
-4.678130626678467

> <Hybrid2>
-4.678131

$$$$
C47975282
  -OEChem-02152218493D

 35 36  0     1  0  0  0  0  0999 V2000
    9.6356  -27.9872  -11.1518 C   0  0  0  0  0  0  0  0  0  0  0  0
    8.3540  -26.1995   -9.3909 C   0  0  0  0  0  0  0  0  0  0  0  0
    8.5931  -28.4528  -10.3214 C   0  0  0  0  0  0  0  0  0  0  0  0
   10.0223  -26.6452  -11.0930 C   0  0  0  0  0  0  0  0  0  0  0  0
    9.3884  -25.7646  -10.2233 C   0  0  0  0  0  0  0  0  0  0  0  0
    7.9709  -27.5489   -9.4550 C   0  0  0  0  0  0  0  0  0  0  0  0
    7.1372  -29.8216   -9.3867 C   0  0  0  0  0  0  0  0  0  0  0  0
   13.1305  -27.3626  -11.2118 C   0  0  0  0  0  0  0  0  0  0  0  0
    6.3858  -31.0554   -9.0690 C   0  0  0  0  0  0  0  0  0  0  0  0
   11.7147  -26.2904  -14.7608 C   0  0  0  0  0  0  0  0  0  0  0  0
   13.5571  -25.2489  -13.4172 C   0  0  0  0  0  0  0  0  0  0  0  0
   12.1325  -27.0703  -12.3547 C   0  0  2  0  0  0  0  0  0  0  0  0
   12.7563  -26.5331  -13.6627 C   0  0  0  0  0  0  0  0  0  0  0  0
    8.1049  -29.7503  -10.2706 N   0  0  0  0  0  0  0  0  0  0  0  0
   11.0466  -26.2173  -11.9183 N   0  0  0  0  0  0  0  0  0  0  0  0
    9.7774  -24.3962  -10.1579 N   0  3  0  0  0  0  0  0  0  0  0  0
   12.6715  -27.2806  -10.0381 O   0  5  0  0  0  0  0  0  0  0  0  0
   10.6732  -24.0609   -9.3489 O   0  5  0  0  0  0  0  0  0  0  0  0
   14.2961  -27.6823  -11.5860 O   0  0  0  0  0  0  0  0  0  0  0  0
    9.2110  -23.5708  -10.9113 O   0  0  0  0  0  0  0  0  0  0  0  0
    6.7455  -28.3732   -8.5653 S   0  0  0  0  0  0  0  0  0  0  0  0
   10.1303  -28.6770  -11.8310 H   0  0  0  0  0  0  0  0  0  0  0  0
    7.8551  -25.5157   -8.7092 H   0  0  0  0  0  0  0  0  0  0  0  0
    6.8707  -31.6130   -8.2525 H   0  0  0  0  0  0  0  0  0  0  0  0
    5.3501  -30.8377   -8.7607 H   0  0  0  0  0  0  0  0  0  0  0  0
    6.3123  -31.7273   -9.9398 H   0  0  0  0  0  0  0  0  0  0  0  0
   10.9781  -25.5493  -14.4316 H   0  0  0  0  0  0  0  0  0  0  0  0
   11.1709  -27.2070  -15.0126 H   0  0  0  0  0  0  0  0  0  0  0  0
   12.1782  -25.9092  -15.6757 H   0  0  0  0  0  0  0  0  0  0  0  0
   12.9051  -24.4557  -13.0352 H   0  0  0  0  0  0  0  0  0  0  0  0
   14.0086  -24.8881  -14.3473 H   0  0  0  0  0  0  0  0  0  0  0  0
   14.3575  -25.4026  -12.6860 H   0  0  0  0  0  0  0  0  0  0  0  0
   11.6706  -28.0435  -12.5698 H   0  0  0  0  0  0  0  0  0  0  0  0
   13.4667  -27.2794  -14.0415 H   0  0  0  0  0  0  0  0  0  0  0  0
   11.0426  -25.2567  -12.2363 H   0  0  0  0  0  0  0  0  0  0  0  0
  1  3  1  0  0  0  0
  1  4  2  0  0  0  0
  2  5  2  0  0  0  0
  2  6  1  0  0  0  0
  3  6  2  0  0  0  0
  3 14  1  0  0  0  0
  4  5  1  0  0  0  0
  4 15  1  0  0  0  0
  5 16  1  0  0  0  0
  6 21  1  0  0  0  0
  7  9  1  0  0  0  0
  7 14  2  0  0  0  0
  7 21  1  0  0  0  0
  8 12  1  0  0  0  0
  8 17  1  0  0  0  0
  8 19  2  0  0  0  0
 10 13  1  0  0  0  0
 11 13  1  0  0  0  0
 12 13  1  0  0  0  0
 12 15  1  0  0  0  0
 16 18  1  0  0  0  0
 16 20  2  0  0  0  0
  1 22  1  0  0  0  0
  2 23  1  0  0  0  0
  9 24  1  0  0  0  0
  9 25  1  0  0  0  0
  9 26  1  0  0  0  0
 10 27  1  0  0  0  0
 10 28  1  0  0  0  0
 10 29  1  0  0  0  0
 11 30  1  0  0  0  0
 11 31  1  0  0  0  0
 11 32  1  0  0  0  0
 12 33  1  0  0  0  0
 13 34  1  0  0  0  0
 15 35  1  0  0  0  0
M  CHG  3  16   1  17  -1  18  -1
M  END
> <Hybrid2>
-4.678130626678467

> <Hybrid2>
-4.330385

$$$$
C49015206
  -OEChem-02152218493D

 41 41  0     1  0  0  0  0  0999 V2000
   11.6561  -26.5960  -10.6075 C   0  0  0  0  0  0  0  0  0  0  0  0
   15.6958  -28.1159  -11.0239 C   0  0  0  0  0  0  0  0  0  0  0  0
    9.3273  -27.3094  -10.1279 C   0  0  0  0  0  0  0  0  0  0  0  0
    5.2326  -27.2589   -8.3634 C   0  0  0  0  0  0  0  0  0  0  0  0
    5.5303  -28.4259   -7.4246 C   0  0  0  0  0  0  0  0  0  0  0  0
    6.4428  -26.9037   -9.2237 C   0  0  0  0  0  0  0  0  0  0  0  0
    7.2693  -29.2871   -9.0471 C   0  0  0  0  0  0  0  0  0  0  0  0
    6.0744  -29.6615   -8.1555 C   0  0  2  0  0  0  0  0  0  0  0  0
    6.9674  -28.1188   -9.9928 C   0  0  2  0  0  0  0  0  0  0  0  0
    4.9781  -30.3780   -8.9488 C   0  0  0  0  0  0  0  0  0  0  0  0
    8.0432  -27.9084  -12.2080 C   0  0  0  0  0  0  0  0  0  0  0  0
   12.5642  -26.3858  -11.8011 C   0  0  0  0  0  0  0  0  0  0  0  0
   14.2314  -27.9961  -11.4137 C   0  0  0  0  0  0  0  0  0  0  0  0
   10.3891  -27.0336  -11.0006 N   0  0  0  0  0  0  0  0  0  0  0  0
    8.1443  -27.7662  -10.7529 N   0  0  0  0  0  0  0  0  0  0  0  0
   15.9965  -27.6076   -9.9071 O   0  5  0  0  0  0  0  0  0  0  0  0
   12.0193  -26.3916   -9.4525 O   0  0  0  0  0  0  0  0  0  0  0  0
   16.4262  -28.7146  -11.8623 O   0  0  0  0  0  0  0  0  0  0  0  0
    9.4283  -27.1842   -8.9040 O   0  0  0  0  0  0  0  0  0  0  0  0
   13.9125  -26.6079  -11.4465 O   0  0  0  0  0  0  0  0  0  0  0  0
    4.3861  -27.5171   -9.0104 H   0  0  0  0  0  0  0  0  0  0  0  0
    4.9251  -26.3853   -7.7753 H   0  0  0  0  0  0  0  0  0  0  0  0
    6.2516  -28.0977   -6.6591 H   0  0  0  0  0  0  0  0  0  0  0  0
    4.6086  -28.6921   -6.8805 H   0  0  0  0  0  0  0  0  0  0  0  0
    6.1538  -26.1281   -9.9400 H   0  0  0  0  0  0  0  0  0  0  0  0
    7.2311  -26.4763   -8.5983 H   0  0  0  0  0  0  0  0  0  0  0  0
    8.1431  -29.0489   -8.4244 H   0  0  0  0  0  0  0  0  0  0  0  0
    7.5585  -30.1594   -9.6514 H   0  0  0  0  0  0  0  0  0  0  0  0
    6.4364  -30.3754   -7.3826 H   0  0  0  0  0  0  0  0  0  0  0  0
    6.2226  -28.4314  -10.7278 H   0  0  0  0  0  0  0  0  0  0  0  0
    4.5903  -29.7165   -9.7214 H   0  0  0  0  0  0  0  0  0  0  0  0
    4.1665  -30.6622   -8.2815 H   0  0  0  0  0  0  0  0  0  0  0  0
    5.3864  -31.2724   -9.4162 H   0  0  0  0  0  0  0  0  0  0  0  0
    8.3572  -28.9212  -12.5006 H   0  0  0  0  0  0  0  0  0  0  0  0
    7.0018  -27.7426  -12.5210 H   0  0  0  0  0  0  0  0  0  0  0  0
    8.6947  -27.1677  -12.6948 H   0  0  0  0  0  0  0  0  0  0  0  0
   12.4630  -25.3552  -12.1542 H   0  0  0  0  0  0  0  0  0  0  0  0
   12.2868  -27.0699  -12.6089 H   0  0  0  0  0  0  0  0  0  0  0  0
   13.5996  -28.4953  -10.6727 H   0  0  0  0  0  0  0  0  0  0  0  0
   14.0422  -28.4300  -12.4003 H   0  0  0  0  0  0  0  0  0  0  0  0
   10.2249  -27.1617  -11.9935 H   0  0  0  0  0  0  0  0  0  0  0  0
  1 12  1  0  0  0  0
  1 14  1  0  0  0  0
  1 17  2  0  0  0  0
  2 13  1  0  0  0  0
  2 16  1  0  0  0  0
  2 18  2  0  0  0  0
  3 14  1  0  0  0  0
  3 15  1  0  0  0  0
  3 19  2  0  0  0  0
  4  5  1  0  0  0  0
  4  6  1  0  0  0  0
  5  8  1  0  0  0  0
  6  9  1  0  0  0  0
  7  8  1  0  0  0  0
  7  9  1  0  0  0  0
  8 10  1  0  0  0  0
  9 15  1  0  0  0  0
 11 15  1  0  0  0  0
 12 20  1  0  0  0  0
 13 20  1  0  0  0  0
  4 21  1  0  0  0  0
  4 22  1  0  0  0  0
  5 23  1  0  0  0  0
  5 24  1  0  0  0  0
  6 25  1  0  0  0  0
  6 26  1  0  0  0  0
  7 27  1  0  0  0  0
  7 28  1  0  0  0  0
  8 29  1  0  0  0  0
  9 30  1  0  0  0  0
 10 31  1  0  0  0  0
 10 32  1  0  0  0  0
 10 33  1  0  0  0  0
 11 34  1  0  0  0  0
 11 35  1  0  0  0  0
 11 36  1  0  0  0  0
 12 37  1  0  0  0  0
 12 38  1  0  0  0  0
 13 39  1  0  0  0  0
 13 40  1  0  0  0  0
 14 41  1  0  0  0  0
M  CHG  1  16  -1
M  END
> <Hybrid2>
-2.2152607440948486

> <Hybrid2>
-2.215261

$$$$
C49015206
  -OEChem-02152218493D

 41 41  0     1  0  0  0  0  0999 V2000
   11.5693  -26.5960  -10.0999 C   0  0  0  0  0  0  0  0  0  0  0  0
   15.6090  -28.1159  -10.5163 C   0  0  0  0  0  0  0  0  0  0  0  0
    9.2405  -27.3094   -9.6203 C   0  0  0  0  0  0  0  0  0  0  0  0
    5.1458  -27.2589   -7.8558 C   0  0  0  0  0  0  0  0  0  0  0  0
    5.4435  -28.4259   -6.9170 C   0  0  0  0  0  0  0  0  0  0  0  0
    6.3559  -26.9037   -8.7161 C   0  0  0  0  0  0  0  0  0  0  0  0
    7.1825  -29.2871   -8.5395 C   0  0  0  0  0  0  0  0  0  0  0  0
    5.9876  -29.6615   -7.6479 C   0  0  2  0  0  0  0  0  0  0  0  0
    6.8806  -28.1188   -9.4852 C   0  0  2  0  0  0  0  0  0  0  0  0
    4.8913  -30.3780   -8.4412 C   0  0  0  0  0  0  0  0  0  0  0  0
    7.9564  -27.9084  -11.7004 C   0  0  0  0  0  0  0  0  0  0  0  0
   12.4773  -26.3858  -11.2935 C   0  0  0  0  0  0  0  0  0  0  0  0
   14.1445  -27.9961  -10.9061 C   0  0  0  0  0  0  0  0  0  0  0  0
   10.3023  -27.0336  -10.4930 N   0  0  0  0  0  0  0  0  0  0  0  0
    8.0574  -27.7661  -10.2453 N   0  0  0  0  0  0  0  0  0  0  0  0
   15.9097  -27.6076   -9.3995 O   0  5  0  0  0  0  0  0  0  0  0  0
   11.9325  -26.3916   -8.9450 O   0  0  0  0  0  0  0  0  0  0  0  0
   16.3394  -28.7146  -11.3547 O   0  0  0  0  0  0  0  0  0  0  0  0
    9.3415  -27.1842   -8.3965 O   0  0  0  0  0  0  0  0  0  0  0  0
   13.8257  -26.6079  -10.9389 O   0  0  0  0  0  0  0  0  0  0  0  0
    4.2993  -27.5171   -8.5028 H   0  0  0  0  0  0  0  0  0  0  0  0
    4.8383  -26.3853   -7.2677 H   0  0  0  0  0  0  0  0  0  0  0  0
    6.1648  -28.0977   -6.1515 H   0  0  0  0  0  0  0  0  0  0  0  0
    4.5218  -28.6921   -6.3729 H   0  0  0  0  0  0  0  0  0  0  0  0
    6.0670  -26.1281   -9.4324 H   0  0  0  0  0  0  0  0  0  0  0  0
    7.1443  -26.4763   -8.0907 H   0  0  0  0  0  0  0  0  0  0  0  0
    8.0563  -29.0489   -7.9168 H   0  0  0  0  0  0  0  0  0  0  0  0
    7.4716  -30.1594   -9.1438 H   0  0  0  0  0  0  0  0  0  0  0  0
    6.3495  -30.3754   -6.8750 H   0  0  0  0  0  0  0  0  0  0  0  0
    6.1358  -28.4314  -10.2202 H   0  0  0  0  0  0  0  0  0  0  0  0
    4.5035  -29.7165   -9.2138 H   0  0  0  0  0  0  0  0  0  0  0  0
    4.0797  -30.6622   -7.7739 H   0  0  0  0  0  0  0  0  0  0  0  0
    5.2996  -31.2724   -8.9086 H   0  0  0  0  0  0  0  0  0  0  0  0
    8.2703  -28.9212  -11.9930 H   0  0  0  0  0  0  0  0  0  0  0  0
    6.9150  -27.7426  -12.0134 H   0  0  0  0  0  0  0  0  0  0  0  0
    8.6079  -27.1677  -12.1872 H   0  0  0  0  0  0  0  0  0  0  0  0
   12.3762  -25.3552  -11.6466 H   0  0  0  0  0  0  0  0  0  0  0  0
   12.2000  -27.0699  -12.1013 H   0  0  0  0  0  0  0  0  0  0  0  0
   13.5128  -28.4953  -10.1651 H   0  0  0  0  0  0  0  0  0  0  0  0
   13.9554  -28.4300  -11.8927 H   0  0  0  0  0  0  0  0  0  0  0  0
   10.1381  -27.1617  -11.4859 H   0  0  0  0  0  0  0  0  0  0  0  0
  1 12  1  0  0  0  0
  1 14  1  0  0  0  0
  1 17  2  0  0  0  0
  2 13  1  0  0  0  0
  2 16  1  0  0  0  0
  2 18  2  0  0  0  0
  3 14  1  0  0  0  0
  3 15  1  0  0  0  0
  3 19  2  0  0  0  0
  4  5  1  0  0  0  0
  4  6  1  0  0  0  0
  5  8  1  0  0  0  0
  6  9  1  0  0  0  0
  7  8  1  0  0  0  0
  7  9  1  0  0  0  0
  8 10  1  0  0  0  0
  9 15  1  0  0  0  0
 11 15  1  0  0  0  0
 12 20  1  0  0  0  0
 13 20  1  0  0  0  0
  4 21  1  0  0  0  0
  4 22  1  0  0  0  0
  5 23  1  0  0  0  0
  5 24  1  0  0  0  0
  6 25  1  0  0  0  0
  6 26  1  0  0  0  0
  7 27  1  0  0  0  0
  7 28  1  0  0  0  0
  8 29  1  0  0  0  0
  9 30  1  0  0  0  0
 10 31  1  0  0  0  0
 10 32  1  0  0  0  0
 10 33  1  0  0  0  0
 11 34  1  0  0  0  0
 11 35  1  0  0  0  0
 11 36  1  0  0  0  0
 12 37  1  0  0  0  0
 12 38  1  0  0  0  0
 13 39  1  0  0  0  0
 13 40  1  0  0  0  0
 14 41  1  0  0  0  0
M  CHG  1  16  -1
M  END
> <Hybrid2>
-2.2152607440948486

> <Hybrid2>
-1.788911

$$$$
C49364176
  -OEChem-02152218493D

 42 43  0     1  0  0  0  0  0999 V2000
    7.8103  -25.5121   -9.9975 C   0  0  0  0  0  0  0  0  0  0  0  0
   12.7852  -27.2810  -10.9761 C   0  0  0  0  0  0  0  0  0  0  0  0
    9.4085  -28.2778  -10.5681 C   0  0  0  0  0  0  0  0  0  0  0  0
    4.5600  -28.9812   -8.3679 C   0  0  0  0  0  0  0  0  0  0  0  0
    5.0469  -29.7333   -9.6009 C   0  0  0  0  0  0  0  0  0  0  0  0
    5.6579  -28.8719   -7.3154 C   0  0  0  0  0  0  0  0  0  0  0  0
    6.2575  -29.0428  -10.2167 C   0  0  0  0  0  0  0  0  0  0  0  0
    6.9963  -26.8121   -8.0971 C   0  0  0  0  0  0  0  0  0  0  0  0
    8.1924  -26.6168   -9.0339 C   0  0  1  0  0  0  0  0  0  0  0  0
    6.9773  -28.3252   -7.8533 C   0  0  2  0  0  0  0  0  0  0  0  0
    7.4053  -28.8955   -9.2091 C   0  0  2  0  0  0  0  0  0  0  0  0
   11.3790  -26.4478  -12.8644 C   0  0  0  0  0  0  0  0  0  0  0  0
   15.1415  -27.4054  -11.1617 C   0  0  0  0  0  0  0  0  0  0  0  0
   11.4631  -27.4371  -11.7125 C   0  0  2  0  0  0  0  0  0  0  0  0
    8.3856  -27.9176   -9.6871 N   0  0  0  0  0  0  0  0  0  0  0  0
   10.3286  -27.2697  -10.8310 N   0  0  0  0  0  0  0  0  0  0  0  0
    7.0372  -24.6314   -9.5287 O   0  5  0  0  0  0  0  0  0  0  0  0
    8.3167  -25.6158  -11.1499 O   0  0  0  0  0  0  0  0  0  0  0  0
   12.8493  -26.9790   -9.7886 O   0  0  0  0  0  0  0  0  0  0  0  0
    9.4868  -29.4031  -11.0690 O   0  0  0  0  0  0  0  0  0  0  0  0
   13.8568  -27.5224  -11.7823 O   0  0  0  0  0  0  0  0  0  0  0  0
    4.2165  -27.9808   -8.6560 H   0  0  0  0  0  0  0  0  0  0  0  0
    3.6950  -29.5003   -7.9392 H   0  0  0  0  0  0  0  0  0  0  0  0
    5.3051  -30.7644   -9.3309 H   0  0  0  0  0  0  0  0  0  0  0  0
    4.2398  -29.7875  -10.3401 H   0  0  0  0  0  0  0  0  0  0  0  0
    5.3080  -28.2580   -6.4774 H   0  0  0  0  0  0  0  0  0  0  0  0
    5.8421  -29.8755   -6.9098 H   0  0  0  0  0  0  0  0  0  0  0  0
    6.5993  -29.6120  -11.0892 H   0  0  0  0  0  0  0  0  0  0  0  0
    5.9444  -28.0593  -10.5895 H   0  0  0  0  0  0  0  0  0  0  0  0
    7.1333  -26.2675   -7.1563 H   0  0  0  0  0  0  0  0  0  0  0  0
    6.0565  -26.4669   -8.5442 H   0  0  0  0  0  0  0  0  0  0  0  0
    9.0990  -26.3520   -8.4816 H   0  0  0  0  0  0  0  0  0  0  0  0
    7.7613  -28.5486   -7.1150 H   0  0  0  0  0  0  0  0  0  0  0  0
    7.8916  -29.8698   -9.0764 H   0  0  0  0  0  0  0  0  0  0  0  0
   11.4251  -25.4150  -12.5032 H   0  0  0  0  0  0  0  0  0  0  0  0
   12.2063  -26.5902  -13.5691 H   0  0  0  0  0  0  0  0  0  0  0  0
   10.4433  -26.5723  -13.4200 H   0  0  0  0  0  0  0  0  0  0  0  0
   15.9223  -27.6189  -11.8958 H   0  0  0  0  0  0  0  0  0  0  0  0
   15.2093  -28.1078  -10.3271 H   0  0  0  0  0  0  0  0  0  0  0  0
   15.2645  -26.3860  -10.7884 H   0  0  0  0  0  0  0  0  0  0  0  0
   11.4161  -28.4659  -12.0852 H   0  0  0  0  0  0  0  0  0  0  0  0
   10.1972  -26.3647  -10.3790 H   0  0  0  0  0  0  0  0  0  0  0  0
  1  9  1  0  0  0  0
  1 17  1  0  0  0  0
  1 18  2  0  0  0  0
  2 14  1  0  0  0  0
  2 19  2  0  0  0  0
  2 21  1  0  0  0  0
  3 15  1  0  0  0  0
  3 16  1  0  0  0  0
  3 20  2  0  0  0  0
  4  5  1  0  0  0  0
  4  6  1  0  0  0  0
  5  7  1  0  0  0  0
  6 10  1  0  0  0  0
  7 11  1  0  0  0  0
  8  9  1  0  0  0  0
  8 10  1  0  0  0  0
  9 15  1  0  0  0  0
 10 11  1  0  0  0  0
 11 15  1  0  0  0  0
 12 14  1  0  0  0  0
 13 21  1  0  0  0  0
 14 16  1  0  0  0  0
  4 22  1  0  0  0  0
  4 23  1  0  0  0  0
  5 24  1  0  0  0  0
  5 25  1  0  0  0  0
  6 26  1  0  0  0  0
  6 27  1  0  0  0  0
  7 28  1  0  0  0  0
  7 29  1  0  0  0  0
  8 30  1  0  0  0  0
  8 31  1  0  0  0  0
  9 32  1  0  0  0  0
 10 33  1  0  0  0  0
 11 34  1  0  0  0  0
 12 35  1  0  0  0  0
 12 36  1  0  0  0  0
 12 37  1  0  0  0  0
 13 38  1  0  0  0  0
 13 39  1  0  0  0  0
 13 40  1  0  0  0  0
 14 41  1  0  0  0  0
 16 42  1  0  0  0  0
M  CHG  1  17  -1
M  END
> <Hybrid2>
-2.908797025680542

> <Hybrid2>
-2.908797

$$$$
C49364176
  -OEChem-02152218493D

 42 43  0     1  0  0  0  0  0999 V2000
    7.8775  -25.3697  -10.8527 C   0  0  0  0  0  0  0  0  0  0  0  0
   12.8570  -27.3771  -10.9590 C   0  0  0  0  0  0  0  0  0  0  0  0
    9.4317  -28.2048  -10.5779 C   0  0  0  0  0  0  0  0  0  0  0  0
    4.4165  -28.2784   -8.6581 C   0  0  0  0  0  0  0  0  0  0  0  0
    4.9703  -29.3241   -9.6187 C   0  0  0  0  0  0  0  0  0  0  0  0
    5.4371  -27.9153   -7.5848 C   0  0  0  0  0  0  0  0  0  0  0  0
    6.2425  -28.8248  -10.2923 C   0  0  0  0  0  0  0  0  0  0  0  0
    6.8887  -26.1352   -8.7550 C   0  0  0  0  0  0  0  0  0  0  0  0
    8.1555  -26.1964   -9.6141 C   0  0  1  0  0  0  0  0  0  0  0  0
    6.8077  -27.5362   -8.1385 C   0  0  2  0  0  0  0  0  0  0  0  0
    7.3171  -28.4369   -9.2681 C   0  0  2  0  0  0  0  0  0  0  0  0
   11.6180  -27.0385  -13.1009 C   0  0  0  0  0  0  0  0  0  0  0  0
   15.2159  -27.5673  -10.9219 C   0  0  0  0  0  0  0  0  0  0  0  0
   11.5884  -27.7028  -11.7332 C   0  0  2  0  0  0  0  0  0  0  0  0
    8.3580  -27.6223   -9.8996 N   0  0  0  0  0  0  0  0  0  0  0  0
   10.3977  -27.3057  -11.0144 N   0  0  0  0  0  0  0  0  0  0  0  0
    7.0982  -24.3912  -10.6840 O   0  5  0  0  0  0  0  0  0  0  0  0
    8.4638  -25.7681  -11.8980 O   0  0  0  0  0  0  0  0  0  0  0  0
   12.8427  -26.7834   -9.8853 O   0  0  0  0  0  0  0  0  0  0  0  0
    9.5137  -29.4212  -10.7700 O   0  0  0  0  0  0  0  0  0  0  0  0
   13.9773  -27.8260  -11.5913 O   0  0  0  0  0  0  0  0  0  0  0  0
    4.1244  -27.3809   -9.2160 H   0  0  0  0  0  0  0  0  0  0  0  0
    3.5077  -28.6629   -8.1812 H   0  0  0  0  0  0  0  0  0  0  0  0
    5.1778  -30.2550   -9.0772 H   0  0  0  0  0  0  0  0  0  0  0  0
    4.2184  -29.5569  -10.3810 H   0  0  0  0  0  0  0  0  0  0  0  0
    5.0447  -27.1049   -6.9595 H   0  0  0  0  0  0  0  0  0  0  0  0
    5.5616  -28.7843   -6.9254 H   0  0  0  0  0  0  0  0  0  0  0  0
    6.6306  -29.6006  -10.9629 H   0  0  0  0  0  0  0  0  0  0  0  0
    5.9865  -27.9655  -10.9252 H   0  0  0  0  0  0  0  0  0  0  0  0
    6.9723  -25.3705   -7.9748 H   0  0  0  0  0  0  0  0  0  0  0  0
    5.9947  -25.9062   -9.3470 H   0  0  0  0  0  0  0  0  0  0  0  0
    9.0265  -25.8083   -9.0774 H   0  0  0  0  0  0  0  0  0  0  0  0
    7.5286  -27.5719   -7.3086 H   0  0  0  0  0  0  0  0  0  0  0  0
    7.7637  -29.3499   -8.8555 H   0  0  0  0  0  0  0  0  0  0  0  0
   11.6676  -25.9483  -13.0103 H   0  0  0  0  0  0  0  0  0  0  0  0
   12.4902  -27.3635  -13.6796 H   0  0  0  0  0  0  0  0  0  0  0  0
   10.7223  -27.2913  -13.6784 H   0  0  0  0  0  0  0  0  0  0  0  0
   16.0419  -27.9681  -11.5146 H   0  0  0  0  0  0  0  0  0  0  0  0
   15.2018  -28.0347   -9.9341 H   0  0  0  0  0  0  0  0  0  0  0  0
   15.3409  -26.4877  -10.8102 H   0  0  0  0  0  0  0  0  0  0  0  0
   11.5389  -28.7921  -11.8360 H   0  0  0  0  0  0  0  0  0  0  0  0
   10.2600  -26.3141  -10.8179 H   0  0  0  0  0  0  0  0  0  0  0  0
  1  9  1  0  0  0  0
  1 17  1  0  0  0  0
  1 18  2  0  0  0  0
  2 14  1  0  0  0  0
  2 19  2  0  0  0  0
  2 21  1  0  0  0  0
  3 15  1  0  0  0  0
  3 16  1  0  0  0  0
  3 20  2  0  0  0  0
  4  5  1  0  0  0  0
  4  6  1  0  0  0  0
  5  7  1  0  0  0  0
  6 10  1  0  0  0  0
  7 11  1  0  0  0  0
  8  9  1  0  0  0  0
  8 10  1  0  0  0  0
  9 15  1  0  0  0  0
 10 11  1  0  0  0  0
 11 15  1  0  0  0  0
 12 14  1  0  0  0  0
 13 21  1  0  0  0  0
 14 16  1  0  0  0  0
  4 22  1  0  0  0  0
  4 23  1  0  0  0  0
  5 24  1  0  0  0  0
  5 25  1  0  0  0  0
  6 26  1  0  0  0  0
  6 27  1  0  0  0  0
  7 28  1  0  0  0  0
  7 29  1  0  0  0  0
  8 30  1  0  0  0  0
  8 31  1  0  0  0  0
  9 32  1  0  0  0  0
 10 33  1  0  0  0  0
 11 34  1  0  0  0  0
 12 35  1  0  0  0  0
 12 36  1  0  0  0  0
 12 37  1  0  0  0  0
 13 38  1  0  0  0  0
 13 39  1  0  0  0  0
 13 40  1  0  0  0  0
 14 41  1  0  0  0  0
 16 42  1  0  0  0  0
M  CHG  1  17  -1
M  END
> <Hybrid2>
-2.908797025680542

> <Hybrid2>
-2.839978

$$$$
C49502834
  -OEChem-02152218493D

 45 46  0     1  0  0  0  0  0999 V2000
   12.9670  -26.6923  -12.8631 C   0  0  0  0  0  0  0  0  0  0  0  0
    8.4747  -25.9726  -11.1857 C   0  0  0  0  0  0  0  0  0  0  0  0
   11.4678  -27.2580   -9.4034 C   0  0  0  0  0  0  0  0  0  0  0  0
   12.5324  -27.0954  -10.4824 C   0  0  0  0  0  0  0  0  0  0  0  0
   10.3889  -26.1785   -9.4935 C   0  0  0  0  0  0  0  0  0  0  0  0
    5.1765  -28.8767  -10.2048 C   0  0  0  0  0  0  0  0  0  0  0  0
    5.6563  -28.6904   -7.8524 C   0  0  0  0  0  0  0  0  0  0  0  0
   10.8361  -25.9262  -11.9230 C   0  0  0  0  0  0  0  0  0  0  0  0
    5.6366  -30.3308  -10.1545 C   0  0  0  0  0  0  0  0  0  0  0  0
    6.1063  -30.1486   -7.8579 C   0  0  0  0  0  0  0  0  0  0  0  0
   11.8830  -27.0293  -11.8574 C   0  0  1  0  0  0  0  0  0  0  0  0
    5.7425  -24.4333  -10.3261 C   0  0  0  0  0  0  0  0  0  0  0  0
    5.4443  -26.7001   -9.1992 C   0  0  0  0  0  0  0  0  0  0  0  0
    6.1614  -25.8997  -10.2886 C   0  0  2  0  0  0  0  0  0  0  0  0
    9.8396  -26.0624  -10.8545 N   0  0  0  0  0  0  0  0  0  0  0  0
    5.8789  -28.0952   -9.1774 N   0  0  0  0  0  0  0  0  0  0  0  0
    7.5935  -25.9911  -10.1108 N   0  0  0  0  0  0  0  0  0  0  0  0
   13.5607  -25.5955  -12.6685 O   0  5  0  0  0  0  0  0  0  0  0  0
   13.1361  -27.5560  -13.7689 O   0  0  0  0  0  0  0  0  0  0  0  0
    8.0730  -25.8767  -12.3503 O   0  0  0  0  0  0  0  0  0  0  0  0
    5.4004  -30.8829   -8.8588 O   0  0  0  0  0  0  0  0  0  0  0  0
   10.9993  -28.2456   -9.4999 H   0  0  0  0  0  0  0  0  0  0  0  0
   11.9387  -27.2248   -8.4143 H   0  0  0  0  0  0  0  0  0  0  0  0
   13.1148  -26.1859  -10.2844 H   0  0  0  0  0  0  0  0  0  0  0  0
   13.2384  -27.9333  -10.4350 H   0  0  0  0  0  0  0  0  0  0  0  0
    9.6174  -26.4163   -8.7597 H   0  0  0  0  0  0  0  0  0  0  0  0
   10.8067  -25.1990   -9.2336 H   0  0  0  0  0  0  0  0  0  0  0  0
    5.3887  -28.4713  -11.1988 H   0  0  0  0  0  0  0  0  0  0  0  0
    4.0940  -28.8324  -10.0385 H   0  0  0  0  0  0  0  0  0  0  0  0
    4.5938  -28.6386   -7.5883 H   0  0  0  0  0  0  0  0  0  0  0  0
    6.2268  -28.1470   -7.0931 H   0  0  0  0  0  0  0  0  0  0  0  0
   11.2950  -24.9363  -11.7999 H   0  0  0  0  0  0  0  0  0  0  0  0
   10.3556  -25.9233  -12.9075 H   0  0  0  0  0  0  0  0  0  0  0  0
    5.0701  -30.9253  -10.8785 H   0  0  0  0  0  0  0  0  0  0  0  0
    6.6999  -30.4270  -10.4054 H   0  0  0  0  0  0  0  0  0  0  0  0
    7.1858  -30.2393   -8.0306 H   0  0  0  0  0  0  0  0  0  0  0  0
    5.8865  -30.6103   -6.8900 H   0  0  0  0  0  0  0  0  0  0  0  0
   11.4398  -27.9956  -12.1234 H   0  0  0  0  0  0  0  0  0  0  0  0
    5.9627  -23.9206   -9.3834 H   0  0  0  0  0  0  0  0  0  0  0  0
    6.2811  -23.9001  -11.1174 H   0  0  0  0  0  0  0  0  0  0  0  0
    4.6701  -24.3393  -10.5257 H   0  0  0  0  0  0  0  0  0  0  0  0
    4.3614  -26.6741   -9.3651 H   0  0  0  0  0  0  0  0  0  0  0  0
    5.6345  -26.2525   -8.2176 H   0  0  0  0  0  0  0  0  0  0  0  0
    5.9134  -26.3483  -11.2578 H   0  0  0  0  0  0  0  0  0  0  0  0
    7.9663  -26.0711   -9.1737 H   0  0  0  0  0  0  0  0  0  0  0  0
  1 11  1  0  0  0  0
  1 18  1  0  0  0  0
  1 19  2  0  0  0  0
  2 15  1  0  0  0  0
  2 17  1  0  0  0  0
  2 20  2  0  0  0  0
  3  4  1  0  0  0  0
  3  5  1  0  0  0  0
  4 11  1  0  0  0  0
  5 15  1  0  0  0  0
  6  9  1  0  0  0  0
  6 16  1  0  0  0  0
  7 10  1  0  0  0  0
  7 16  1  0  0  0  0
  8 11  1  0  0  0  0
  8 15  1  0  0  0  0
  9 21  1  0  0  0  0
 10 21  1  0  0  0  0
 12 14  1  0  0  0  0
 13 14  1  0  0  0  0
 13 16  1  0  0  0  0
 14 17  1  0  0  0  0
  3 22  1  0  0  0  0
  3 23  1  0  0  0  0
  4 24  1  0  0  0  0
  4 25  1  0  0  0  0
  5 26  1  0  0  0  0
  5 27  1  0  0  0  0
  6 28  1  0  0  0  0
  6 29  1  0  0  0  0
  7 30  1  0  0  0  0
  7 31  1  0  0  0  0
  8 32  1  0  0  0  0
  8 33  1  0  0  0  0
  9 34  1  0  0  0  0
  9 35  1  0  0  0  0
 10 36  1  0  0  0  0
 10 37  1  0  0  0  0
 11 38  1  0  0  0  0
 12 39  1  0  0  0  0
 12 40  1  0  0  0  0
 12 41  1  0  0  0  0
 13 42  1  0  0  0  0
 13 43  1  0  0  0  0
 14 44  1  0  0  0  0
 17 45  1  0  0  0  0
M  CHG  1  18  -1
M  END
> <Hybrid2>
-2.731221914291382

> <Hybrid2>
-2.731222

$$$$
C49502834
  -OEChem-02152218493D

 45 46  0     1  0  0  0  0  0999 V2000
    5.1453  -29.6424   -7.9749 C   0  0  0  0  0  0  0  0  0  0  0  0
    8.8033  -27.6167  -10.4299 C   0  0  0  0  0  0  0  0  0  0  0  0
    5.4845  -26.1937   -9.5649 C   0  0  0  0  0  0  0  0  0  0  0  0
    4.9165  -27.3076   -8.6927 C   0  0  0  0  0  0  0  0  0  0  0  0
    7.0042  -26.0834   -9.4387 C   0  0  0  0  0  0  0  0  0  0  0  0
   13.9644  -27.8607  -11.2760 C   0  0  0  0  0  0  0  0  0  0  0  0
   13.4258  -25.6677  -12.1124 C   0  0  0  0  0  0  0  0  0  0  0  0
    7.1333  -28.4860   -8.8246 C   0  0  0  0  0  0  0  0  0  0  0  0
   15.2320  -27.8422  -12.1255 C   0  0  0  0  0  0  0  0  0  0  0  0
   14.7055  -25.7015  -12.9429 C   0  0  0  0  0  0  0  0  0  0  0  0
    5.6259  -28.6214   -8.9881 C   0  0  1  0  0  0  0  0  0  0  0  0
   10.2022  -27.4856  -13.1126 C   0  0  0  0  0  0  0  0  0  0  0  0
   11.7063  -27.0283  -11.1062 C   0  0  0  0  0  0  0  0  0  0  0  0
   10.4928  -26.5772  -11.9221 C   0  0  2  0  0  0  0  0  0  0  0  0
    7.6676  -27.3834   -9.6320 N   0  0  0  0  0  0  0  0  0  0  0  0
   12.9270  -27.0350  -11.9098 N   0  0  0  0  0  0  0  0  0  0  0  0
    9.3245  -26.5003  -11.0735 N   0  0  0  0  0  0  0  0  0  0  0  0
    5.3698  -29.3507   -6.7676 O   0  5  0  0  0  0  0  0  0  0  0  0
    4.5803  -30.6567   -8.4722 O   0  0  0  0  0  0  0  0  0  0  0  0
    9.3170  -28.7336  -10.5536 O   0  0  0  0  0  0  0  0  0  0  0  0
   15.6961  -26.5026  -12.2977 O   0  0  0  0  0  0  0  0  0  0  0  0
    5.2221  -26.3825  -10.6135 H   0  0  0  0  0  0  0  0  0  0  0  0
    5.0229  -25.2389   -9.2886 H   0  0  0  0  0  0  0  0  0  0  0  0
    5.0298  -27.0349   -7.6352 H   0  0  0  0  0  0  0  0  0  0  0  0
    3.8396  -27.4074   -8.8747 H   0  0  0  0  0  0  0  0  0  0  0  0
    7.3453  -25.3387  -10.1592 H   0  0  0  0  0  0  0  0  0  0  0  0
    7.2792  -25.7307   -8.4379 H   0  0  0  0  0  0  0  0  0  0  0  0
   13.6176  -28.8939  -11.1782 H   0  0  0  0  0  0  0  0  0  0  0  0
   14.1926  -27.4775  -10.2748 H   0  0  0  0  0  0  0  0  0  0  0  0
   13.6318  -25.1934  -11.1460 H   0  0  0  0  0  0  0  0  0  0  0  0
   12.6782  -25.0665  -12.6387 H   0  0  0  0  0  0  0  0  0  0  0  0
    7.4010  -28.2700   -7.7818 H   0  0  0  0  0  0  0  0  0  0  0  0
    7.6246  -29.4313   -9.0799 H   0  0  0  0  0  0  0  0  0  0  0  0
   16.0241  -28.4074  -11.6237 H   0  0  0  0  0  0  0  0  0  0  0  0
   15.0671  -28.3018  -13.1074 H   0  0  0  0  0  0  0  0  0  0  0  0
   14.5233  -26.0882  -13.9532 H   0  0  0  0  0  0  0  0  0  0  0  0
   15.1110  -24.6898  -13.0446 H   0  0  0  0  0  0  0  0  0  0  0  0
    5.3794  -28.9770   -9.9950 H   0  0  0  0  0  0  0  0  0  0  0  0
    9.9881  -28.5136  -12.8003 H   0  0  0  0  0  0  0  0  0  0  0  0
    9.3265  -27.1267  -13.6649 H   0  0  0  0  0  0  0  0  0  0  0  0
   11.0513  -27.5065  -13.8034 H   0  0  0  0  0  0  0  0  0  0  0  0
   11.5409  -28.0380  -10.7138 H   0  0  0  0  0  0  0  0  0  0  0  0
   11.8493  -26.3640  -10.2470 H   0  0  0  0  0  0  0  0  0  0  0  0
   10.6971  -25.5705  -12.3054 H   0  0  0  0  0  0  0  0  0  0  0  0
    8.8718  -25.6048  -10.9439 H   0  0  0  0  0  0  0  0  0  0  0  0
  1 11  1  0  0  0  0
  1 18  1  0  0  0  0
  1 19  2  0  0  0  0
  2 15  1  0  0  0  0
  2 17  1  0  0  0  0
  2 20  2  0  0  0  0
  3  4  1  0  0  0  0
  3  5  1  0  0  0  0
  4 11  1  0  0  0  0
  5 15  1  0  0  0  0
  6  9  1  0  0  0  0
  6 16  1  0  0  0  0
  7 10  1  0  0  0  0
  7 16  1  0  0  0  0
  8 11  1  0  0  0  0
  8 15  1  0  0  0  0
  9 21  1  0  0  0  0
 10 21  1  0  0  0  0
 12 14  1  0  0  0  0
 13 14  1  0  0  0  0
 13 16  1  0  0  0  0
 14 17  1  0  0  0  0
  3 22  1  0  0  0  0
  3 23  1  0  0  0  0
  4 24  1  0  0  0  0
  4 25  1  0  0  0  0
  5 26  1  0  0  0  0
  5 27  1  0  0  0  0
  6 28  1  0  0  0  0
  6 29  1  0  0  0  0
  7 30  1  0  0  0  0
  7 31  1  0  0  0  0
  8 32  1  0  0  0  0
  8 33  1  0  0  0  0
  9 34  1  0  0  0  0
  9 35  1  0  0  0  0
 10 36  1  0  0  0  0
 10 37  1  0  0  0  0
 11 38  1  0  0  0  0
 12 39  1  0  0  0  0
 12 40  1  0  0  0  0
 12 41  1  0  0  0  0
 13 42  1  0  0  0  0
 13 43  1  0  0  0  0
 14 44  1  0  0  0  0
 17 45  1  0  0  0  0
M  CHG  1  18  -1
M  END
> <Hybrid2>
-2.731221914291382

> <Hybrid2>
-1.645117

$$$$
C50223881
  -OEChem-02152218493D

 40 42  0     1  0  0  0  0  0999 V2000
    7.2255  -26.2508   -9.7642 C   0  0  0  0  0  0  0  0  0  0  0  0
    8.0823  -27.2805  -10.0620 C   0  0  0  0  0  0  0  0  0  0  0  0
    6.1169  -26.2832   -8.7188 C   0  0  0  0  0  0  0  0  0  0  0  0
   11.3053  -26.7156  -11.4938 C   0  0  0  0  0  0  0  0  0  0  0  0
   16.0487  -27.7839  -10.8986 C   0  0  0  0  0  0  0  0  0  0  0  0
   15.9713  -26.8821  -12.1337 C   0  0  0  0  0  0  0  0  0  0  0  0
    8.0430  -29.8857  -10.3505 C   0  0  0  0  0  0  0  0  0  0  0  0
    6.8958  -29.5381   -9.4542 C   0  0  0  0  0  0  0  0  0  0  0  0
   14.6223  -28.2574  -10.6323 C   0  0  0  0  0  0  0  0  0  0  0  0
   14.5020  -26.8578  -12.5467 C   0  0  0  0  0  0  0  0  0  0  0  0
    8.1423  -28.6710   -9.4449 C   0  0  0  0  0  0  0  0  0  0  0  0
   13.7593  -27.1648  -11.2519 C   0  0  0  0  0  0  0  0  0  0  0  0
    9.6788  -27.5550  -13.2485 C   0  0  0  0  0  0  0  0  0  0  0  0
    9.9781  -27.4249  -11.7548 C   0  0  2  0  0  0  0  0  0  0  0  0
    7.5127  -25.1714  -10.5528 N   0  0  0  0  0  0  0  0  0  0  0  0
    8.5307  -25.5007  -11.3404 N   0  0  0  0  0  0  0  0  0  0  0  0
    8.8706  -26.7657  -11.0447 N   0  0  0  0  0  0  0  0  0  0  0  0
   12.3899  -27.5912  -11.4776 N   0  0  0  0  0  0  0  0  0  0  0  0
    5.4291  -25.2313   -8.5882 O   0  5  0  0  0  0  0  0  0  0  0  0
    5.9793  -27.3591   -8.0707 O   0  0  0  0  0  0  0  0  0  0  0  0
   11.3862  -25.5014  -11.3211 O   0  0  0  0  0  0  0  0  0  0  0  0
   16.7266  -28.6295  -11.0530 H   0  0  0  0  0  0  0  0  0  0  0  0
   16.4264  -27.2109  -10.0438 H   0  0  0  0  0  0  0  0  0  0  0  0
   16.3126  -25.8723  -11.8781 H   0  0  0  0  0  0  0  0  0  0  0  0
   16.6077  -27.2479  -12.9458 H   0  0  0  0  0  0  0  0  0  0  0  0
    8.6349  -30.7574  -10.0991 H   0  0  0  0  0  0  0  0  0  0  0  0
    7.9173  -29.7242  -11.4144 H   0  0  0  0  0  0  0  0  0  0  0  0
    5.9987  -29.1414   -9.9141 H   0  0  0  0  0  0  0  0  0  0  0  0
    6.7130  -30.1748   -8.5970 H   0  0  0  0  0  0  0  0  0  0  0  0
   14.4565  -29.2196  -11.1333 H   0  0  0  0  0  0  0  0  0  0  0  0
   14.4273  -28.3927   -9.5640 H   0  0  0  0  0  0  0  0  0  0  0  0
   14.2130  -25.8958  -12.9809 H   0  0  0  0  0  0  0  0  0  0  0  0
   14.3219  -27.6378  -13.2972 H   0  0  0  0  0  0  0  0  0  0  0  0
    8.7919  -28.7721   -8.5750 H   0  0  0  0  0  0  0  0  0  0  0  0
   13.7247  -26.2833  -10.6085 H   0  0  0  0  0  0  0  0  0  0  0  0
    9.5742  -26.5776  -13.7324 H   0  0  0  0  0  0  0  0  0  0  0  0
   10.4891  -28.0874  -13.7586 H   0  0  0  0  0  0  0  0  0  0  0  0
    8.7492  -28.1103  -13.4147 H   0  0  0  0  0  0  0  0  0  0  0  0
   10.0679  -28.4403  -11.3460 H   0  0  0  0  0  0  0  0  0  0  0  0
   12.2119  -28.5845  -11.6326 H   0  0  0  0  0  0  0  0  0  0  0  0
  1  2  2  0  0  0  0
  1  3  1  0  0  0  0
  1 15  1  0  0  0  0
  2 11  1  0  0  0  0
  2 17  1  0  0  0  0
  3 19  1  0  0  0  0
  3 20  2  0  0  0  0
  4 14  1  0  0  0  0
  4 18  1  0  0  0  0
  4 21  2  0  0  0  0
  5  6  1  0  0  0  0
  5  9  1  0  0  0  0
  6 10  1  0  0  0  0
  7  8  1  0  0  0  0
  7 11  1  0  0  0  0
  8 11  1  0  0  0  0
  9 12  1  0  0  0  0
 10 12  1  0  0  0  0
 12 18  1  0  0  0  0
 13 14  1  0  0  0  0
 14 17  1  0  0  0  0
 15 16  2  0  0  0  0
 16 17  1  0  0  0  0
  5 22  1  0  0  0  0
  5 23  1  0  0  0  0
  6 24  1  0  0  0  0
  6 25  1  0  0  0  0
  7 26  1  0  0  0  0
  7 27  1  0  0  0  0
  8 28  1  0  0  0  0
  8 29  1  0  0  0  0
  9 30  1  0  0  0  0
  9 31  1  0  0  0  0
 10 32  1  0  0  0  0
 10 33  1  0  0  0  0
 11 34  1  0  0  0  0
 12 35  1  0  0  0  0
 13 36  1  0  0  0  0
 13 37  1  0  0  0  0
 13 38  1  0  0  0  0
 14 39  1  0  0  0  0
 18 40  1  0  0  0  0
M  CHG  1  19  -1
M  END
> <Hybrid2>
-2.0328123569488525

> <Hybrid2>
-2.032812

$$$$
C50223881
  -OEChem-02152218493D

 40 42  0     1  0  0  0  0  0999 V2000
    6.5204  -26.8431   -9.1981 C   0  0  0  0  0  0  0  0  0  0  0  0
    7.6065  -27.5655   -9.6243 C   0  0  0  0  0  0  0  0  0  0  0  0
    5.4646  -27.3162   -8.2060 C   0  0  0  0  0  0  0  0  0  0  0  0
   10.7040  -26.5964  -10.4464 C   0  0  0  0  0  0  0  0  0  0  0  0
   14.7574  -28.1880   -8.6413 C   0  0  0  0  0  0  0  0  0  0  0  0
   15.3974  -27.9290  -10.0080 C   0  0  0  0  0  0  0  0  0  0  0  0
    8.2225  -30.0186  -10.3135 C   0  0  0  0  0  0  0  0  0  0  0  0
    7.0324  -30.1148   -9.4110 C   0  0  0  0  0  0  0  0  0  0  0  0
   13.2484  -28.1449   -8.8675 C   0  0  0  0  0  0  0  0  0  0  0  0
   14.2410  -27.7419  -10.9866 C   0  0  0  0  0  0  0  0  0  0  0  0
    8.0202  -28.9762   -9.2281 C   0  0  0  0  0  0  0  0  0  0  0  0
   13.0950  -27.2651  -10.1024 C   0  0  0  0  0  0  0  0  0  0  0  0
    9.4246  -26.2429  -12.6067 C   0  0  0  0  0  0  0  0  0  0  0  0
    9.4632  -26.9623  -11.2582 C   0  0  2  0  0  0  0  0  0  0  0  0
    6.5197  -25.6158   -9.8008 N   0  0  0  0  0  0  0  0  0  0  0  0
    7.5812  -25.5515  -10.5972 N   0  0  0  0  0  0  0  0  0  0  0  0
    8.2314  -26.7216  -10.4901 N   0  0  0  0  0  0  0  0  0  0  0  0
   11.7976  -27.4103  -10.7377 N   0  0  0  0  0  0  0  0  0  0  0  0
    4.5350  -26.5040   -7.9361 O   0  5  0  0  0  0  0  0  0  0  0  0
    5.6080  -28.4807   -7.7368 O   0  0  0  0  0  0  0  0  0  0  0  0
   10.7160  -25.6775   -9.6302 O   0  0  0  0  0  0  0  0  0  0  0  0
   15.0695  -29.1491   -8.2204 H   0  0  0  0  0  0  0  0  0  0  0  0
   15.0599  -27.4056   -7.9356 H   0  0  0  0  0  0  0  0  0  0  0  0
   16.0112  -27.0219   -9.9648 H   0  0  0  0  0  0  0  0  0  0  0  0
   16.0500  -28.7526  -10.3149 H   0  0  0  0  0  0  0  0  0  0  0  0
    9.0171  -30.7428  -10.1813 H   0  0  0  0  0  0  0  0  0  0  0  0
    8.0512  -29.7280  -11.3430 H   0  0  0  0  0  0  0  0  0  0  0  0
    6.0604  -29.8878   -9.8322 H   0  0  0  0  0  0  0  0  0  0  0  0
    7.0231  -30.9039   -8.6688 H   0  0  0  0  0  0  0  0  0  0  0  0
   12.8781  -29.1598   -9.0605 H   0  0  0  0  0  0  0  0  0  0  0  0
   12.7143  -27.7478   -7.9989 H   0  0  0  0  0  0  0  0  0  0  0  0
   14.4856  -27.0297  -11.7807 H   0  0  0  0  0  0  0  0  0  0  0  0
   14.0011  -28.7048  -11.4552 H   0  0  0  0  0  0  0  0  0  0  0  0
    8.6816  -29.0473   -8.3643 H   0  0  0  0  0  0  0  0  0  0  0  0
   13.2174  -26.2105   -9.8475 H   0  0  0  0  0  0  0  0  0  0  0  0
    9.3721  -25.1548  -12.4896 H   0  0  0  0  0  0  0  0  0  0  0  0
   10.3258  -26.4662  -13.1881 H   0  0  0  0  0  0  0  0  0  0  0  0
    8.5545  -26.5573  -13.1935 H   0  0  0  0  0  0  0  0  0  0  0  0
    9.5149  -28.0407  -11.4601 H   0  0  0  0  0  0  0  0  0  0  0  0
   11.6800  -28.1472  -11.4345 H   0  0  0  0  0  0  0  0  0  0  0  0
  1  2  2  0  0  0  0
  1  3  1  0  0  0  0
  1 15  1  0  0  0  0
  2 11  1  0  0  0  0
  2 17  1  0  0  0  0
  3 19  1  0  0  0  0
  3 20  2  0  0  0  0
  4 14  1  0  0  0  0
  4 18  1  0  0  0  0
  4 21  2  0  0  0  0
  5  6  1  0  0  0  0
  5  9  1  0  0  0  0
  6 10  1  0  0  0  0
  7  8  1  0  0  0  0
  7 11  1  0  0  0  0
  8 11  1  0  0  0  0
  9 12  1  0  0  0  0
 10 12  1  0  0  0  0
 12 18  1  0  0  0  0
 13 14  1  0  0  0  0
 14 17  1  0  0  0  0
 15 16  2  0  0  0  0
 16 17  1  0  0  0  0
  5 22  1  0  0  0  0
  5 23  1  0  0  0  0
  6 24  1  0  0  0  0
  6 25  1  0  0  0  0
  7 26  1  0  0  0  0
  7 27  1  0  0  0  0
  8 28  1  0  0  0  0
  8 29  1  0  0  0  0
  9 30  1  0  0  0  0
  9 31  1  0  0  0  0
 10 32  1  0  0  0  0
 10 33  1  0  0  0  0
 11 34  1  0  0  0  0
 12 35  1  0  0  0  0
 13 36  1  0  0  0  0
 13 37  1  0  0  0  0
 13 38  1  0  0  0  0
 14 39  1  0  0  0  0
 18 40  1  0  0  0  0
M  CHG  1  19  -1
M  END
> <Hybrid2>
-2.0328123569488525

> <Hybrid2>
-1.954490

$$$$
C51638848
  -OEChem-02152218493D

 30 31  0     0  0  0  0  0  0999 V2000
    8.1008  -30.6025   -9.9991 C   0  0  0  0  0  0  0  0  0  0  0  0
    5.6718  -27.4181   -8.6732 C   0  0  0  0  0  0  0  0  0  0  0  0
    5.6740  -28.6280   -7.9791 C   0  0  0  0  0  0  0  0  0  0  0  0
    7.2750  -28.3153  -10.2422 C   0  0  0  0  0  0  0  0  0  0  0  0
    9.8168  -26.1991   -9.3658 C   0  0  0  0  0  0  0  0  0  0  0  0
    9.7647  -25.5291  -11.6029 C   0  0  0  0  0  0  0  0  0  0  0  0
    7.2772  -29.5252   -9.5481 C   0  0  0  0  0  0  0  0  0  0  0  0
    6.4723  -27.2618   -9.8048 C   0  0  0  0  0  0  0  0  0  0  0  0
    6.4767  -29.6815   -8.4165 C   0  0  0  0  0  0  0  0  0  0  0  0
    9.1192  -25.5827  -10.3845 C   0  0  0  0  0  0  0  0  0  0  0  0
   11.5725  -26.6111  -10.7495 C   0  0  0  0  0  0  0  0  0  0  0  0
   13.5436  -27.1069  -12.1968 C   0  0  0  0  0  0  0  0  0  0  0  0
    8.7695  -31.4774  -10.3654 N   0  0  0  0  0  0  0  0  0  0  0  0
   11.0499  -26.7263   -9.5138 N   0  0  0  0  0  0  0  0  0  0  0  0
   10.9963  -26.0350  -11.8217 N   0  0  0  0  0  0  0  0  0  0  0  0
    6.4707  -26.0924  -10.4740 N   0  5  0  0  0  0  0  0  0  0  0  0
   12.8624  -27.1525  -10.9410 N   0  0  0  0  0  0  0  0  0  0  0  0
    7.5050  -24.4894   -8.7343 O   0  0  0  0  0  0  0  0  0  0  0  0
    7.4500  -23.7824  -11.0846 O   0  0  0  0  0  0  0  0  0  0  0  0
    6.4676  -30.8386   -7.7389 F   0  0  0  0  0  0  0  0  0  0  0  0
    7.4703  -24.8954  -10.1377 S   0  0  0  0  0  0  0  0  0  0  0  0
    5.0392  -26.6079   -8.3165 H   0  0  0  0  0  0  0  0  0  0  0  0
    5.0508  -28.7496   -7.0980 H   0  0  0  0  0  0  0  0  0  0  0  0
    7.9021  -28.1966  -11.1252 H   0  0  0  0  0  0  0  0  0  0  0  0
    9.3968  -26.2942   -8.3695 H   0  0  0  0  0  0  0  0  0  0  0  0
    9.3025  -25.0651  -12.4684 H   0  0  0  0  0  0  0  0  0  0  0  0
   12.9108  -26.5993  -12.9396 H   0  0  0  0  0  0  0  0  0  0  0  0
   14.4882  -26.5550  -12.0816 H   0  0  0  0  0  0  0  0  0  0  0  0
   13.7566  -28.1315  -12.5356 H   0  0  0  0  0  0  0  0  0  0  0  0
   13.2957  -27.5823  -10.1465 H   0  0  0  0  0  0  0  0  0  0  0  0
  1  7  1  0  0  0  0
  1 13  3  0  0  0  0
  2  3  2  0  0  0  0
  2  8  1  0  0  0  0
  3  9  1  0  0  0  0
  4  7  1  0  0  0  0
  4  8  2  0  0  0  0
  5 10  1  0  0  0  0
  5 14  2  0  0  0  0
  6 10  2  0  0  0  0
  6 15  1  0  0  0  0
  7  9  2  0  0  0  0
  8 16  1  0  0  0  0
  9 20  1  0  0  0  0
 10 21  1  0  0  0  0
 11 14  1  0  0  0  0
 11 15  2  0  0  0  0
 11 17  1  0  0  0  0
 12 17  1  0  0  0  0
 16 21  1  0  0  0  0
 18 21  2  0  0  0  0
 19 21  2  0  0  0  0
  2 22  1  0  0  0  0
  3 23  1  0  0  0  0
  4 24  1  0  0  0  0
  5 25  1  0  0  0  0
  6 26  1  0  0  0  0
 12 27  1  0  0  0  0
 12 28  1  0  0  0  0
 12 29  1  0  0  0  0
 17 30  1  0  0  0  0
M  CHG  1  16  -1
M  END
> <Hybrid2>
-3.2545807361602783

> <Hybrid2>
-3.254581

$$$$
C51638848
  -OEChem-02152218493D

 30 31  0     0  0  0  0  0  0999 V2000
    7.6558  -29.8263   -9.2780 C   0  0  0  0  0  0  0  0  0  0  0  0
    7.8218  -25.6823  -10.0515 C   0  0  0  0  0  0  0  0  0  0  0  0
    7.0705  -26.1608   -8.9781 C   0  0  0  0  0  0  0  0  0  0  0  0
    8.4618  -27.9437  -10.6116 C   0  0  0  0  0  0  0  0  0  0  0  0
   12.6744  -26.5749  -12.5768 C   0  0  0  0  0  0  0  0  0  0  0  0
   12.3368  -26.5645  -10.2655 C   0  0  0  0  0  0  0  0  0  0  0  0
    7.7106  -28.4222   -9.5381 C   0  0  0  0  0  0  0  0  0  0  0  0
    8.5174  -26.5738  -10.8683 C   0  0  0  0  0  0  0  0  0  0  0  0
    7.0149  -27.5307   -8.7213 C   0  0  0  0  0  0  0  0  0  0  0  0
   11.9133  -26.1436  -11.5095 C   0  0  0  0  0  0  0  0  0  0  0  0
   14.0773  -27.7001  -11.1865 C   0  0  0  0  0  0  0  0  0  0  0  0
   15.6683  -28.9610   -9.7357 C   0  0  0  0  0  0  0  0  0  0  0  0
    7.6113  -30.9666   -9.0668 N   0  0  0  0  0  0  0  0  0  0  0  0
   13.7667  -27.3569  -12.4511 N   0  0  0  0  0  0  0  0  0  0  0  0
   13.4183  -27.3463  -10.0666 N   0  0  0  0  0  0  0  0  0  0  0  0
    9.2440  -26.1109  -11.9042 N   0  5  0  0  0  0  0  0  0  0  0  0
   15.2156  -28.5182  -11.0171 N   0  0  0  0  0  0  0  0  0  0  0  0
   10.4481  -24.3147  -10.4936 O   0  0  0  0  0  0  0  0  0  0  0  0
   10.8086  -24.3265  -12.9219 O   0  0  0  0  0  0  0  0  0  0  0  0
    6.2881  -27.9753   -7.6859 F   0  0  0  0  0  0  0  0  0  0  0  0
   10.4621  -25.0958  -11.7287 S   0  0  0  0  0  0  0  0  0  0  0  0
    7.8531  -24.6104  -10.2356 H   0  0  0  0  0  0  0  0  0  0  0  0
    6.5290  -25.4667   -8.3421 H   0  0  0  0  0  0  0  0  0  0  0  0
    9.0045  -28.6428  -11.2469 H   0  0  0  0  0  0  0  0  0  0  0  0
   12.4267  -26.2983  -13.5966 H   0  0  0  0  0  0  0  0  0  0  0  0
   11.8073  -26.2809   -9.3615 H   0  0  0  0  0  0  0  0  0  0  0  0
   15.0007  -28.5682   -8.9546 H   0  0  0  0  0  0  0  0  0  0  0  0
   15.6618  -30.0605   -9.7045 H   0  0  0  0  0  0  0  0  0  0  0  0
   16.6910  -28.5952   -9.5618 H   0  0  0  0  0  0  0  0  0  0  0  0
   15.7095  -28.7843  -11.8471 H   0  0  0  0  0  0  0  0  0  0  0  0
  1  7  1  0  0  0  0
  1 13  3  0  0  0  0
  2  3  2  0  0  0  0
  2  8  1  0  0  0  0
  3  9  1  0  0  0  0
  4  7  1  0  0  0  0
  4  8  2  0  0  0  0
  5 10  1  0  0  0  0
  5 14  2  0  0  0  0
  6 10  2  0  0  0  0
  6 15  1  0  0  0  0
  7  9  2  0  0  0  0
  8 16  1  0  0  0  0
  9 20  1  0  0  0  0
 10 21  1  0  0  0  0
 11 14  1  0  0  0  0
 11 15  2  0  0  0  0
 11 17  1  0  0  0  0
 12 17  1  0  0  0  0
 16 21  1  0  0  0  0
 18 21  2  0  0  0  0
 19 21  2  0  0  0  0
  2 22  1  0  0  0  0
  3 23  1  0  0  0  0
  4 24  1  0  0  0  0
  5 25  1  0  0  0  0
  6 26  1  0  0  0  0
 12 27  1  0  0  0  0
 12 28  1  0  0  0  0
 12 29  1  0  0  0  0
 17 30  1  0  0  0  0
M  CHG  1  16  -1
M  END
> <Hybrid2>
-3.2545807361602783

> <Hybrid2>
-3.165800

$$$$
C54303975
  -OEChem-02152218493D

 39 40  0     1  0  0  0  0  0999 V2000
   11.5682  -25.7715  -11.1543 C   0  0  0  0  0  0  0  0  0  0  0  0
   12.0526  -27.8442  -10.6025 C   0  0  0  0  0  0  0  0  0  0  0  0
   11.0461  -26.9134  -10.5177 C   0  0  0  0  0  0  0  0  0  0  0  0
    7.1857  -31.0023   -8.6504 C   0  0  0  0  0  0  0  0  0  0  0  0
    8.7439  -26.1623   -9.8227 C   0  0  0  0  0  0  0  0  0  0  0  0
    5.2004  -26.4082   -9.6750 C   0  0  0  0  0  0  0  0  0  0  0  0
    4.9572  -27.8153   -9.1241 C   0  0  0  0  0  0  0  0  0  0  0  0
    6.4229  -25.7581   -9.0299 C   0  0  0  0  0  0  0  0  0  0  0  0
    7.4074  -27.9630   -8.5609 C   0  0  0  0  0  0  0  0  0  0  0  0
    6.2244  -28.6828   -9.2204 C   0  0  1  0  0  0  0  0  0  0  0  0
   15.2844  -27.8728  -10.3879 C   0  0  0  0  0  0  0  0  0  0  0  0
    5.9947  -30.0497   -8.5817 C   0  0  0  0  0  0  0  0  0  0  0  0
   14.3559  -27.8082  -11.5884 C   0  0  0  0  0  0  0  0  0  0  0  0
   12.8100  -25.9575  -11.6097 N   0  0  0  0  0  0  0  0  0  0  0  0
   13.0766  -27.2271  -11.2588 N   0  0  0  0  0  0  0  0  0  0  0  0
    7.5889  -26.6339   -9.1644 N   0  0  0  0  0  0  0  0  0  0  0  0
    9.7759  -27.0954   -9.9165 N   0  0  0  0  0  0  0  0  0  0  0  0
    7.9438  -30.8996   -9.6534 O   0  5  0  0  0  0  0  0  0  0  0  0
    7.2619  -31.7928   -7.6655 O   0  0  0  0  0  0  0  0  0  0  0  0
    8.8027  -25.0234  -10.2935 O   0  0  0  0  0  0  0  0  0  0  0  0
   11.0976  -24.8107  -11.3072 H   0  0  0  0  0  0  0  0  0  0  0  0
   12.1265  -28.8678  -10.2601 H   0  0  0  0  0  0  0  0  0  0  0  0
    5.3440  -26.4600  -10.7615 H   0  0  0  0  0  0  0  0  0  0  0  0
    4.3153  -25.7869   -9.4983 H   0  0  0  0  0  0  0  0  0  0  0  0
    4.6360  -27.7394   -8.0773 H   0  0  0  0  0  0  0  0  0  0  0  0
    4.1356  -28.2865   -9.6763 H   0  0  0  0  0  0  0  0  0  0  0  0
    6.6049  -24.7816   -9.4887 H   0  0  0  0  0  0  0  0  0  0  0  0
    6.2531  -25.5926   -7.9595 H   0  0  0  0  0  0  0  0  0  0  0  0
    7.2136  -27.8038   -7.4922 H   0  0  0  0  0  0  0  0  0  0  0  0
    8.3068  -28.5761   -8.6193 H   0  0  0  0  0  0  0  0  0  0  0  0
    6.4612  -28.8411  -10.2832 H   0  0  0  0  0  0  0  0  0  0  0  0
   15.4692  -26.8749   -9.9764 H   0  0  0  0  0  0  0  0  0  0  0  0
   16.2469  -28.3070  -10.6756 H   0  0  0  0  0  0  0  0  0  0  0  0
   14.8567  -28.4888   -9.5899 H   0  0  0  0  0  0  0  0  0  0  0  0
    5.1437  -30.5248   -9.0765 H   0  0  0  0  0  0  0  0  0  0  0  0
    5.7309  -29.9018   -7.5314 H   0  0  0  0  0  0  0  0  0  0  0  0
   14.1770  -28.8109  -11.9929 H   0  0  0  0  0  0  0  0  0  0  0  0
   14.8022  -27.2090  -12.3901 H   0  0  0  0  0  0  0  0  0  0  0  0
    9.6025  -28.0483   -9.4957 H   0  0  0  0  0  0  0  0  0  0  0  0
  1  3  1  0  0  0  0
  1 14  2  0  0  0  0
  2  3  2  0  0  0  0
  2 15  1  0  0  0  0
  3 17  1  0  0  0  0
  4 12  1  0  0  0  0
  4 18  1  0  0  0  0
  4 19  2  0  0  0  0
  5 16  1  0  0  0  0
  5 17  1  0  0  0  0
  5 20  2  0  0  0  0
  6  7  1  0  0  0  0
  6  8  1  0  0  0  0
  7 10  1  0  0  0  0
  8 16  1  0  0  0  0
  9 10  1  0  0  0  0
  9 16  1  0  0  0  0
 10 12  1  0  0  0  0
 11 13  1  0  0  0  0
 13 15  1  0  0  0  0
 14 15  1  0  0  0  0
  1 21  1  0  0  0  0
  2 22  1  0  0  0  0
  6 23  1  0  0  0  0
  6 24  1  0  0  0  0
  7 25  1  0  0  0  0
  7 26  1  0  0  0  0
  8 27  1  0  0  0  0
  8 28  1  0  0  0  0
  9 29  1  0  0  0  0
  9 30  1  0  0  0  0
 10 31  1  0  0  0  0
 11 32  1  0  0  0  0
 11 33  1  0  0  0  0
 11 34  1  0  0  0  0
 12 35  1  0  0  0  0
 12 36  1  0  0  0  0
 13 37  1  0  0  0  0
 13 38  1  0  0  0  0
 17 39  1  0  0  0  0
M  CHG  1  18  -1
M  END
> <Hybrid2>
-4.550477981567383

> <Hybrid2>
-4.550478

$$$$
C54303975
  -OEChem-02152218493D

 39 40  0     1  0  0  0  0  0999 V2000
   11.5383  -25.8136  -11.4024 C   0  0  0  0  0  0  0  0  0  0  0  0
   12.0666  -27.8733  -10.8422 C   0  0  0  0  0  0  0  0  0  0  0  0
   11.0454  -26.9594  -10.7496 C   0  0  0  0  0  0  0  0  0  0  0  0
    7.2843  -31.0996   -8.7950 C   0  0  0  0  0  0  0  0  0  0  0  0
    8.7409  -26.2427  -10.0265 C   0  0  0  0  0  0  0  0  0  0  0  0
    5.2047  -26.5485   -9.8248 C   0  0  0  0  0  0  0  0  0  0  0  0
    4.9941  -27.9553   -9.2598 C   0  0  0  0  0  0  0  0  0  0  0  0
    6.4250  -25.8725   -9.2026 C   0  0  0  0  0  0  0  0  0  0  0  0
    7.4544  -28.0564   -8.7316 C   0  0  0  0  0  0  0  0  0  0  0  0
    6.2747  -28.8016   -9.3682 C   0  0  1  0  0  0  0  0  0  0  0  0
   15.3012  -27.8445  -10.6750 C   0  0  0  0  0  0  0  0  0  0  0  0
    6.0780  -30.1672   -8.7159 C   0  0  0  0  0  0  0  0  0  0  0  0
   14.3543  -27.8052  -11.8621 C   0  0  0  0  0  0  0  0  0  0  0  0
   12.7763  -25.9817  -11.8747 N   0  0  0  0  0  0  0  0  0  0  0  0
   13.0700  -27.2438  -11.5182 N   0  0  0  0  0  0  0  0  0  0  0  0
    7.6040  -26.7291   -9.3477 N   0  0  0  0  0  0  0  0  0  0  0  0
    9.7874  -27.1585  -10.1284 N   0  0  0  0  0  0  0  0  0  0  0  0
    8.0258  -30.9916   -9.8098 O   0  5  0  0  0  0  0  0  0  0  0  0
    7.3886  -31.8810   -7.8053 O   0  0  0  0  0  0  0  0  0  0  0  0
    8.7731  -25.1067  -10.5066 O   0  0  0  0  0  0  0  0  0  0  0  0
   11.0488  -24.8623  -11.5556 H   0  0  0  0  0  0  0  0  0  0  0  0
   12.1632  -28.8927  -10.4933 H   0  0  0  0  0  0  0  0  0  0  0  0
    5.3334  -26.6063  -10.9128 H   0  0  0  0  0  0  0  0  0  0  0  0
    4.3116  -25.9413   -9.6397 H   0  0  0  0  0  0  0  0  0  0  0  0
    4.6869  -27.8769   -8.2089 H   0  0  0  0  0  0  0  0  0  0  0  0
    4.1728  -28.4449   -9.7963 H   0  0  0  0  0  0  0  0  0  0  0  0
    6.5833  -24.8966   -9.6714 H   0  0  0  0  0  0  0  0  0  0  0  0
    6.2680  -25.7016   -8.1311 H   0  0  0  0  0  0  0  0  0  0  0  0
    7.2735  -27.8922   -7.6614 H   0  0  0  0  0  0  0  0  0  0  0  0
    8.3634  -28.6543   -8.7986 H   0  0  0  0  0  0  0  0  0  0  0  0
    6.4986  -28.9640  -10.4331 H   0  0  0  0  0  0  0  0  0  0  0  0
   15.4746  -26.8403  -10.2738 H   0  0  0  0  0  0  0  0  0  0  0  0
   16.2667  -28.2642  -10.9736 H   0  0  0  0  0  0  0  0  0  0  0  0
   14.8959  -28.4615   -9.8661 H   0  0  0  0  0  0  0  0  0  0  0  0
    5.2283  -30.6607   -9.1945 H   0  0  0  0  0  0  0  0  0  0  0  0
    5.8271  -30.0157   -7.6629 H   0  0  0  0  0  0  0  0  0  0  0  0
   14.1870  -28.8140  -12.2564 H   0  0  0  0  0  0  0  0  0  0  0  0
   14.7784  -27.2047  -12.6748 H   0  0  0  0  0  0  0  0  0  0  0  0
    9.6368  -28.1110   -9.6979 H   0  0  0  0  0  0  0  0  0  0  0  0
  1  3  1  0  0  0  0
  1 14  2  0  0  0  0
  2  3  2  0  0  0  0
  2 15  1  0  0  0  0
  3 17  1  0  0  0  0
  4 12  1  0  0  0  0
  4 18  1  0  0  0  0
  4 19  2  0  0  0  0
  5 16  1  0  0  0  0
  5 17  1  0  0  0  0
  5 20  2  0  0  0  0
  6  7  1  0  0  0  0
  6  8  1  0  0  0  0
  7 10  1  0  0  0  0
  8 16  1  0  0  0  0
  9 10  1  0  0  0  0
  9 16  1  0  0  0  0
 10 12  1  0  0  0  0
 11 13  1  0  0  0  0
 13 15  1  0  0  0  0
 14 15  1  0  0  0  0
  1 21  1  0  0  0  0
  2 22  1  0  0  0  0
  6 23  1  0  0  0  0
  6 24  1  0  0  0  0
  7 25  1  0  0  0  0
  7 26  1  0  0  0  0
  8 27  1  0  0  0  0
  8 28  1  0  0  0  0
  9 29  1  0  0  0  0
  9 30  1  0  0  0  0
 10 31  1  0  0  0  0
 11 32  1  0  0  0  0
 11 33  1  0  0  0  0
 11 34  1  0  0  0  0
 12 35  1  0  0  0  0
 12 36  1  0  0  0  0
 13 37  1  0  0  0  0
 13 38  1  0  0  0  0
 17 39  1  0  0  0  0
M  CHG  1  18  -1
M  END
> <Hybrid2>
-4.550477981567383

> <Hybrid2>
-4.337657

$$$$
C54335430
  -OEChem-02152218493D

 38 38  0     1  0  0  0  0  0999 V2000
   13.5093  -27.6117  -11.9490 C   0  0  0  0  0  0  0  0  0  0  0  0
    5.9986  -25.5521   -9.2932 C   0  0  0  0  0  0  0  0  0  0  0  0
    8.8167  -25.6819  -11.2504 C   0  0  0  0  0  0  0  0  0  0  0  0
   12.3551  -25.4120  -11.8024 C   0  0  0  0  0  0  0  0  0  0  0  0
   11.3245  -27.3276  -13.1321 C   0  0  0  0  0  0  0  0  0  0  0  0
   11.3258  -25.6869  -10.7074 C   0  0  0  0  0  0  0  0  0  0  0  0
   10.3124  -27.5101  -11.9994 C   0  0  0  0  0  0  0  0  0  0  0  0
   12.6198  -26.6451  -12.6756 C   0  0  0  0  0  0  0  0  0  0  0  0
    5.6613  -23.1815   -8.8162 C   0  0  0  0  0  0  0  0  0  0  0  0
   15.6162  -27.7998  -10.8956 C   0  0  0  0  0  0  0  0  0  0  0  0
    7.4601  -23.7605  -10.4585 C   0  0  0  0  0  0  0  0  0  0  0  0
    6.7355  -24.2011   -9.1888 C   0  0  2  0  0  0  0  0  0  0  0  0
   10.1019  -26.2453  -11.2947 N   0  0  0  0  0  0  0  0  0  0  0  0
    8.7153  -24.4675  -10.5827 N   0  0  0  0  0  0  0  0  0  0  0  0
    5.1293  -25.6059  -10.2112 O   0  5  0  0  0  0  0  0  0  0  0  0
   13.2120  -28.7760  -11.7183 O   0  0  0  0  0  0  0  0  0  0  0  0
    6.3401  -26.4412   -8.4645 O   0  0  0  0  0  0  0  0  0  0  0  0
    7.8335  -26.2181  -11.7727 O   0  0  0  0  0  0  0  0  0  0  0  0
   14.6706  -26.9886  -11.5999 O   0  0  0  0  0  0  0  0  0  0  0  0
   11.9881  -24.5952  -12.4369 H   0  0  0  0  0  0  0  0  0  0  0  0
   13.2875  -25.0639  -11.3418 H   0  0  0  0  0  0  0  0  0  0  0  0
   11.5444  -28.3045  -13.5792 H   0  0  0  0  0  0  0  0  0  0  0  0
   10.8626  -26.7160  -13.9180 H   0  0  0  0  0  0  0  0  0  0  0  0
   11.7110  -26.4292   -9.9977 H   0  0  0  0  0  0  0  0  0  0  0  0
   11.1427  -24.7817  -10.1280 H   0  0  0  0  0  0  0  0  0  0  0  0
    9.3729  -27.8935  -12.4099 H   0  0  0  0  0  0  0  0  0  0  0  0
   10.6690  -28.2440  -11.2679 H   0  0  0  0  0  0  0  0  0  0  0  0
   13.1863  -26.3317  -13.5614 H   0  0  0  0  0  0  0  0  0  0  0  0
    4.9144  -23.0785   -9.6115 H   0  0  0  0  0  0  0  0  0  0  0  0
    5.1409  -23.4842   -7.9012 H   0  0  0  0  0  0  0  0  0  0  0  0
    6.0944  -22.1910   -8.6381 H   0  0  0  0  0  0  0  0  0  0  0  0
   16.5051  -27.2076  -10.6651 H   0  0  0  0  0  0  0  0  0  0  0  0
   15.8884  -28.6610  -11.5110 H   0  0  0  0  0  0  0  0  0  0  0  0
   15.1620  -28.1484   -9.9651 H   0  0  0  0  0  0  0  0  0  0  0  0
    6.8585  -23.9906  -11.3448 H   0  0  0  0  0  0  0  0  0  0  0  0
    7.6643  -22.6847  -10.4645 H   0  0  0  0  0  0  0  0  0  0  0  0
    7.4595  -24.2714   -8.3663 H   0  0  0  0  0  0  0  0  0  0  0  0
    9.5464  -24.0652  -10.1702 H   0  0  0  0  0  0  0  0  0  0  0  0
  1  8  1  0  0  0  0
  1 16  2  0  0  0  0
  1 19  1  0  0  0  0
  2 12  1  0  0  0  0
  2 15  1  0  0  0  0
  2 17  2  0  0  0  0
  3 13  1  0  0  0  0
  3 14  1  0  0  0  0
  3 18  2  0  0  0  0
  4  6  1  0  0  0  0
  4  8  1  0  0  0  0
  5  7  1  0  0  0  0
  5  8  1  0  0  0  0
  6 13  1  0  0  0  0
  7 13  1  0  0  0  0
  9 12  1  0  0  0  0
 10 19  1  0  0  0  0
 11 12  1  0  0  0  0
 11 14  1  0  0  0  0
  4 20  1  0  0  0  0
  4 21  1  0  0  0  0
  5 22  1  0  0  0  0
  5 23  1  0  0  0  0
  6 24  1  0  0  0  0
  6 25  1  0  0  0  0
  7 26  1  0  0  0  0
  7 27  1  0  0  0  0
  8 28  1  0  0  0  0
  9 29  1  0  0  0  0
  9 30  1  0  0  0  0
  9 31  1  0  0  0  0
 10 32  1  0  0  0  0
 10 33  1  0  0  0  0
 10 34  1  0  0  0  0
 11 35  1  0  0  0  0
 11 36  1  0  0  0  0
 12 37  1  0  0  0  0
 14 38  1  0  0  0  0
M  CHG  1  15  -1
M  END
> <Hybrid2>
-1.059516191482544

> <Hybrid2>
-1.059516

$$$$
C54335430
  -OEChem-02152218493D

 38 38  0     1  0  0  0  0  0999 V2000
   13.2095  -27.0499  -11.5106 C   0  0  0  0  0  0  0  0  0  0  0  0
    6.0674  -29.2359   -8.2815 C   0  0  0  0  0  0  0  0  0  0  0  0
    8.1654  -26.4728  -10.8355 C   0  0  0  0  0  0  0  0  0  0  0  0
   11.5362  -26.9048   -9.6743 C   0  0  0  0  0  0  0  0  0  0  0  0
   11.4086  -25.3220  -11.6689 C   0  0  0  0  0  0  0  0  0  0  0  0
   10.3633  -27.6761  -10.2772 C   0  0  0  0  0  0  0  0  0  0  0  0
   10.2184  -26.1353  -12.1813 C   0  0  0  0  0  0  0  0  0  0  0  0
   12.3232  -26.1210  -10.7325 C   0  0  0  0  0  0  0  0  0  0  0  0
    4.3921  -27.5352   -7.7697 C   0  0  0  0  0  0  0  0  0  0  0  0
   14.9470  -28.6329  -11.2677 C   0  0  0  0  0  0  0  0  0  0  0  0
    6.2069  -26.8906   -9.3693 C   0  0  0  0  0  0  0  0  0  0  0  0
    5.8653  -27.7143   -8.1300 C   0  0  2  0  0  0  0  0  0  0  0  0
    9.5175  -26.7719  -11.0659 N   0  0  0  0  0  0  0  0  0  0  0  0
    7.5885  -27.1029   -9.7394 N   0  0  0  0  0  0  0  0  0  0  0  0
    5.4083  -29.7612   -9.2254 O   0  5  0  0  0  0  0  0  0  0  0  0
   13.1691  -27.1770  -12.7268 O   0  0  0  0  0  0  0  0  0  0  0  0
    6.8568  -29.7801   -7.4602 O   0  0  0  0  0  0  0  0  0  0  0  0
    7.5213  -25.6969  -11.5497 O   0  0  0  0  0  0  0  0  0  0  0  0
   14.0423  -27.7085  -10.6552 O   0  0  0  0  0  0  0  0  0  0  0  0
   11.1510  -26.2046   -8.9222 H   0  0  0  0  0  0  0  0  0  0  0  0
   12.1968  -27.6053   -9.1493 H   0  0  0  0  0  0  0  0  0  0  0  0
   11.9782  -24.9393  -12.5244 H   0  0  0  0  0  0  0  0  0  0  0  0
   11.0265  -24.4478  -11.1259 H   0  0  0  0  0  0  0  0  0  0  0  0
   10.7271  -28.4545  -10.9590 H   0  0  0  0  0  0  0  0  0  0  0  0
    9.8120  -28.1951   -9.4929 H   0  0  0  0  0  0  0  0  0  0  0  0
    9.5472  -25.4807  -12.7462 H   0  0  0  0  0  0  0  0  0  0  0  0
   10.5477  -26.9271  -12.8636 H   0  0  0  0  0  0  0  0  0  0  0  0
   13.0010  -25.4261  -10.2211 H   0  0  0  0  0  0  0  0  0  0  0  0
    3.7379  -27.8658   -8.5844 H   0  0  0  0  0  0  0  0  0  0  0  0
    4.1387  -28.1158   -6.8762 H   0  0  0  0  0  0  0  0  0  0  0  0
    4.1562  -26.4860   -7.5602 H   0  0  0  0  0  0  0  0  0  0  0  0
   15.5647  -29.1032  -10.4987 H   0  0  0  0  0  0  0  0  0  0  0  0
   15.5795  -28.1039  -11.9851 H   0  0  0  0  0  0  0  0  0  0  0  0
   14.3713  -29.4010  -11.7895 H   0  0  0  0  0  0  0  0  0  0  0  0
    5.5839  -27.1947  -10.2177 H   0  0  0  0  0  0  0  0  0  0  0  0
    6.0504  -25.8188   -9.2082 H   0  0  0  0  0  0  0  0  0  0  0  0
    6.4815  -27.3717   -7.2882 H   0  0  0  0  0  0  0  0  0  0  0  0
    8.1534  -27.7303   -9.1826 H   0  0  0  0  0  0  0  0  0  0  0  0
  1  8  1  0  0  0  0
  1 16  2  0  0  0  0
  1 19  1  0  0  0  0
  2 12  1  0  0  0  0
  2 15  1  0  0  0  0
  2 17  2  0  0  0  0
  3 13  1  0  0  0  0
  3 14  1  0  0  0  0
  3 18  2  0  0  0  0
  4  6  1  0  0  0  0
  4  8  1  0  0  0  0
  5  7  1  0  0  0  0
  5  8  1  0  0  0  0
  6 13  1  0  0  0  0
  7 13  1  0  0  0  0
  9 12  1  0  0  0  0
 10 19  1  0  0  0  0
 11 12  1  0  0  0  0
 11 14  1  0  0  0  0
  4 20  1  0  0  0  0
  4 21  1  0  0  0  0
  5 22  1  0  0  0  0
  5 23  1  0  0  0  0
  6 24  1  0  0  0  0
  6 25  1  0  0  0  0
  7 26  1  0  0  0  0
  7 27  1  0  0  0  0
  8 28  1  0  0  0  0
  9 29  1  0  0  0  0
  9 30  1  0  0  0  0
  9 31  1  0  0  0  0
 10 32  1  0  0  0  0
 10 33  1  0  0  0  0
 10 34  1  0  0  0  0
 11 35  1  0  0  0  0
 11 36  1  0  0  0  0
 12 37  1  0  0  0  0
 14 38  1  0  0  0  0
M  CHG  1  15  -1
M  END
> <Hybrid2>
-1.059516191482544

> <Hybrid2>
-1.041864

$$$$
C54521944
  -OEChem-02152218493D

 30 32  0     1  0  0  0  0  0999 V2000
    9.5360  -28.3774  -10.5540 C   0  0  0  0  0  0  0  0  0  0  0  0
    8.5680  -29.0584   -9.8115 C   0  0  0  0  0  0  0  0  0  0  0  0
    5.5659  -27.2710   -8.2645 C   0  0  0  0  0  0  0  0  0  0  0  0
    7.3817  -26.9420   -9.4734 C   0  0  0  0  0  0  0  0  0  0  0  0
    9.4420  -27.0056  -10.7606 C   0  0  0  0  0  0  0  0  0  0  0  0
    8.3736  -26.2785  -10.2276 C   0  0  0  0  0  0  0  0  0  0  0  0
    7.4975  -28.3218   -9.2792 C   0  0  0  0  0  0  0  0  0  0  0  0
   12.5997  -27.3972  -11.0052 C   0  0  0  0  0  0  0  0  0  0  0  0
   12.7676  -26.9750  -14.4092 C   0  0  0  0  0  0  0  0  0  0  0  0
   11.4249  -26.3260  -14.5984 C   0  0  0  0  0  0  0  0  0  0  0  0
   12.1070  -26.2655  -13.2598 C   0  0  0  0  0  0  0  0  0  0  0  0
   11.5569  -27.0583  -12.0835 C   0  0  2  0  0  0  0  0  0  0  0  0
    6.2703  -26.3548   -8.8866 N   0  0  0  0  0  0  0  0  0  0  0  0
   10.4469  -26.3600  -11.5187 N   0  0  0  0  0  0  0  0  0  0  0  0
    8.2461  -24.8757  -10.4168 N   0  3  0  0  0  0  0  0  0  0  0  0
   12.1727  -27.5012   -9.8220 O   0  5  0  0  0  0  0  0  0  0  0  0
    7.6134  -24.4528  -11.4138 O   0  5  0  0  0  0  0  0  0  0  0  0
   13.7792  -27.5352  -11.4434 O   0  0  0  0  0  0  0  0  0  0  0  0
    8.7703  -24.1006   -9.5816 O   0  0  0  0  0  0  0  0  0  0  0  0
    6.1653  -28.8716   -8.3328 S   0  0  0  0  0  0  0  0  0  0  0  0
   10.3695  -28.9406  -10.9681 H   0  0  0  0  0  0  0  0  0  0  0  0
    8.6473  -30.1297   -9.6540 H   0  0  0  0  0  0  0  0  0  0  0  0
    4.6538  -27.0319   -7.7352 H   0  0  0  0  0  0  0  0  0  0  0  0
   12.8066  -28.0573  -14.3975 H   0  0  0  0  0  0  0  0  0  0  0  0
   13.6261  -26.5001  -14.8680 H   0  0  0  0  0  0  0  0  0  0  0  0
   11.3830  -25.4157  -15.1838 H   0  0  0  0  0  0  0  0  0  0  0  0
   10.5645  -26.9736  -14.7137 H   0  0  0  0  0  0  0  0  0  0  0  0
   12.5236  -25.3146  -12.9502 H   0  0  0  0  0  0  0  0  0  0  0  0
   11.1618  -28.0093  -12.4614 H   0  0  0  0  0  0  0  0  0  0  0  0
   10.3495  -25.3724  -11.6466 H   0  0  0  0  0  0  0  0  0  0  0  0
  1  2  1  0  0  0  0
  1  5  2  0  0  0  0
  2  7  2  0  0  0  0
  3 13  2  0  0  0  0
  3 20  1  0  0  0  0
  4  6  2  0  0  0  0
  4  7  1  0  0  0  0
  4 13  1  0  0  0  0
  5  6  1  0  0  0  0
  5 14  1  0  0  0  0
  6 15  1  0  0  0  0
  7 20  1  0  0  0  0
  8 12  1  0  0  0  0
  8 16  1  0  0  0  0
  8 18  2  0  0  0  0
  9 10  1  0  0  0  0
  9 11  1  0  0  0  0
 10 11  1  0  0  0  0
 11 12  1  0  0  0  0
 12 14  1  0  0  0  0
 15 17  1  0  0  0  0
 15 19  2  0  0  0  0
  1 21  1  0  0  0  0
  2 22  1  0  0  0  0
  3 23  1  0  0  0  0
  9 24  1  0  0  0  0
  9 25  1  0  0  0  0
 10 26  1  0  0  0  0
 10 27  1  0  0  0  0
 11 28  1  0  0  0  0
 12 29  1  0  0  0  0
 14 30  1  0  0  0  0
M  CHG  3  15   1  16  -1  17  -1
M  END
> <Hybrid2>
-3.9977500438690186

> <Hybrid2>
-3.997750

$$$$
C54521944
  -OEChem-02152218493D

 30 32  0     1  0  0  0  0  0999 V2000
    8.9863  -26.8486  -12.3807 C   0  0  0  0  0  0  0  0  0  0  0  0
   10.0245  -27.0550  -13.2926 C   0  0  0  0  0  0  0  0  0  0  0  0
   13.6980  -26.7047  -12.3008 C   0  0  0  0  0  0  0  0  0  0  0  0
   11.6401  -26.5584  -11.5195 C   0  0  0  0  0  0  0  0  0  0  0  0
    9.2543  -26.5035  -11.0607 C   0  0  0  0  0  0  0  0  0  0  0  0
   10.5722  -26.3556  -10.6186 C   0  0  0  0  0  0  0  0  0  0  0  0
   11.3459  -26.9049  -12.8417 C   0  0  0  0  0  0  0  0  0  0  0  0
    5.8876  -26.7181   -9.4030 C   0  0  0  0  0  0  0  0  0  0  0  0
    7.4035  -29.7607   -8.9158 C   0  0  0  0  0  0  0  0  0  0  0  0
    8.7760  -29.3819   -9.3982 C   0  0  0  0  0  0  0  0  0  0  0  0
    7.8341  -28.3202   -8.9018 C   0  0  0  0  0  0  0  0  0  0  0  0
    7.2185  -27.3264   -9.8758 C   0  0  2  0  0  0  0  0  0  0  0  0
   12.9913  -26.4478  -11.2251 N   0  0  0  0  0  0  0  0  0  0  0  0
    8.1696  -26.3042  -10.1745 N   0  0  0  0  0  0  0  0  0  0  0  0
   10.8835  -26.0021   -9.2778 N   0  3  0  0  0  0  0  0  0  0  0  0
    5.6299  -25.5486   -9.8019 O   0  5  0  0  0  0  0  0  0  0  0  0
   11.0450  -26.9137   -8.4316 O   0  5  0  0  0  0  0  0  0  0  0  0
    5.1996  -27.4781   -8.6605 O   0  0  0  0  0  0  0  0  0  0  0  0
   10.9876  -24.7884   -8.9788 O   0  0  0  0  0  0  0  0  0  0  0  0
   12.8197  -27.0909  -13.7169 S   0  0  0  0  0  0  0  0  0  0  0  0
    7.9597  -26.9611  -12.7227 H   0  0  0  0  0  0  0  0  0  0  0  0
    9.8084  -27.3244  -14.3218 H   0  0  0  0  0  0  0  0  0  0  0  0
   14.7789  -26.6751  -12.2974 H   0  0  0  0  0  0  0  0  0  0  0  0
    6.6797  -30.0788   -9.6559 H   0  0  0  0  0  0  0  0  0  0  0  0
    7.3272  -30.2730   -7.9646 H   0  0  0  0  0  0  0  0  0  0  0  0
    9.6200  -29.6397   -8.7703 H   0  0  0  0  0  0  0  0  0  0  0  0
    8.9715  -29.4463  -10.4614 H   0  0  0  0  0  0  0  0  0  0  0  0
    8.0468  -27.8687   -7.9403 H   0  0  0  0  0  0  0  0  0  0  0  0
    7.0188  -27.8463  -10.8208 H   0  0  0  0  0  0  0  0  0  0  0  0
    8.0910  -25.3989   -9.7558 H   0  0  0  0  0  0  0  0  0  0  0  0
  1  2  1  0  0  0  0
  1  5  2  0  0  0  0
  2  7  2  0  0  0  0
  3 13  2  0  0  0  0
  3 20  1  0  0  0  0
  4  6  2  0  0  0  0
  4  7  1  0  0  0  0
  4 13  1  0  0  0  0
  5  6  1  0  0  0  0
  5 14  1  0  0  0  0
  6 15  1  0  0  0  0
  7 20  1  0  0  0  0
  8 12  1  0  0  0  0
  8 16  1  0  0  0  0
  8 18  2  0  0  0  0
  9 10  1  0  0  0  0
  9 11  1  0  0  0  0
 10 11  1  0  0  0  0
 11 12  1  0  0  0  0
 12 14  1  0  0  0  0
 15 17  1  0  0  0  0
 15 19  2  0  0  0  0
  1 21  1  0  0  0  0
  2 22  1  0  0  0  0
  3 23  1  0  0  0  0
  9 24  1  0  0  0  0
  9 25  1  0  0  0  0
 10 26  1  0  0  0  0
 10 27  1  0  0  0  0
 11 28  1  0  0  0  0
 12 29  1  0  0  0  0
 14 30  1  0  0  0  0
M  CHG  3  15   1  16  -1  17  -1
M  END
> <Hybrid2>
-3.9977500438690186

> <Hybrid2>
-3.831241

$$$$
C29388988
  -OEChem-02152218493D

 29 30  0     0  0  0  0  0  0999 V2000
   11.7001  -26.2280  -12.0340 C   0  0  0  0  0  0  0  0  0  0  0  0
   12.4433  -26.8105  -10.9928 C   0  0  0  0  0  0  0  0  0  0  0  0
   12.4618  -26.4620  -13.1482 C   0  0  0  0  0  0  0  0  0  0  0  0
    6.3707  -27.9126   -8.7229 C   0  0  0  0  0  0  0  0  0  0  0  0
    7.7705  -26.6167   -9.5705 C   0  0  0  0  0  0  0  0  0  0  0  0
    9.2674  -26.4160  -11.3686 C   0  0  0  0  0  0  0  0  0  0  0  0
   12.1095  -26.8651   -9.5595 C   0  0  0  0  0  0  0  0  0  0  0  0
   12.3095  -26.1412  -14.5733 C   0  0  0  0  0  0  0  0  0  0  0  0
   10.4071  -25.5295  -11.9527 C   0  0  0  0  0  0  0  0  0  0  0  0
    5.6694  -29.1575   -8.3874 C   0  0  0  0  0  0  0  0  0  0  0  0
   13.5790  -27.3634  -11.4279 N   0  0  0  0  0  0  0  0  0  0  0  0
    7.4669  -27.8935   -9.5370 N   0  0  0  0  0  0  0  0  0  0  0  0
    5.9770  -26.7280   -8.2507 N   0  0  0  0  0  0  0  0  0  0  0  0
    8.8071  -25.9394  -10.2398 N   0  0  0  0  0  0  0  0  0  0  0  0
    6.8887  -25.9164   -8.8077 N   0  0  0  0  0  0  0  0  0  0  0  0
    8.9268  -27.4157  -12.0409 O   0  5  0  0  0  0  0  0  0  0  0  0
   13.5857  -27.1390  -12.7994 O   0  0  0  0  0  0  0  0  0  0  0  0
    6.2071  -30.2877   -8.9582 F   0  0  0  0  0  0  0  0  0  0  0  0
    5.6327  -29.4471   -7.0432 F   0  0  0  0  0  0  0  0  0  0  0  0
    4.3520  -29.1676   -8.7783 F   0  0  0  0  0  0  0  0  0  0  0  0
   11.5279  -27.7713   -9.3178 H   0  0  0  0  0  0  0  0  0  0  0  0
   13.0110  -26.8688   -8.9211 H   0  0  0  0  0  0  0  0  0  0  0  0
   11.5145  -25.9922   -9.2362 H   0  0  0  0  0  0  0  0  0  0  0  0
   12.7582  -25.1615  -14.8177 H   0  0  0  0  0  0  0  0  0  0  0  0
   12.7871  -26.8942  -15.2279 H   0  0  0  0  0  0  0  0  0  0  0  0
   11.2488  -26.1043  -14.8856 H   0  0  0  0  0  0  0  0  0  0  0  0
   10.0702  -25.1777  -12.9522 H   0  0  0  0  0  0  0  0  0  0  0  0
   10.4818  -24.5966  -11.3522 H   0  0  0  0  0  0  0  0  0  0  0  0
    6.8456  -24.9208   -8.6260 H   0  0  0  0  0  0  0  0  0  0  0  0
  1  2  1  0  0  0  0
  1  3  2  0  0  0  0
  1  9  1  0  0  0  0
  2  7  1  0  0  0  0
  2 11  2  0  0  0  0
  3  8  1  0  0  0  0
  3 17  1  0  0  0  0
  4 10  1  0  0  0  0
  4 12  1  0  0  0  0
  4 13  2  0  0  0  0
  5 12  2  0  0  0  0
  5 14  1  0  0  0  0
  5 15  1  0  0  0  0
  6  9  1  0  0  0  0
  6 14  2  0  0  0  0
  6 16  1  0  0  0  0
 10 18  1  0  0  0  0
 10 19  1  0  0  0  0
 10 20  1  0  0  0  0
 11 17  1  0  0  0  0
 13 15  1  0  0  0  0
  7 21  1  0  0  0  0
  7 22  1  0  0  0  0
  7 23  1  0  0  0  0
  8 24  1  0  0  0  0
  8 25  1  0  0  0  0
  8 26  1  0  0  0  0
  9 27  1  0  0  0  0
  9 28  1  0  0  0  0
 15 29  1  0  0  0  0
M  CHG  1  16  -1
M  END
> <Hybrid2>
-2.6546499729156494

> <Hybrid2>
-2.654650

$$$$
C29388988
  -OEChem-02152218493D

 29 30  0     0  0  0  0  0  0999 V2000
    8.0635  -26.6809   -9.4911 C   0  0  0  0  0  0  0  0  0  0  0  0
    7.9044  -28.0713   -9.6226 C   0  0  0  0  0  0  0  0  0  0  0  0
    7.1737  -26.3429   -8.5062 C   0  0  0  0  0  0  0  0  0  0  0  0
   14.3177  -27.5916  -10.9946 C   0  0  0  0  0  0  0  0  0  0  0  0
   12.3618  -26.9130  -11.2612 C   0  0  0  0  0  0  0  0  0  0  0  0
   10.4718  -26.1780  -10.0771 C   0  0  0  0  0  0  0  0  0  0  0  0
    8.6092  -28.9832  -10.5393 C   0  0  0  0  0  0  0  0  0  0  0  0
    6.8026  -25.0787   -7.8572 C   0  0  0  0  0  0  0  0  0  0  0  0
    8.9711  -25.7917  -10.2341 C   0  0  0  0  0  0  0  0  0  0  0  0
   15.4963  -28.1852  -10.3521 C   0  0  0  0  0  0  0  0  0  0  0  0
    6.9860  -28.5583   -8.7834 N   0  0  0  0  0  0  0  0  0  0  0  0
   13.1177  -27.4832  -10.3519 N   0  0  0  0  0  0  0  0  0  0  0  0
   14.3518  -27.1243  -12.2443 N   0  0  0  0  0  0  0  0  0  0  0  0
   11.0077  -26.5312  -11.2179 N   0  0  0  0  0  0  0  0  0  0  0  0
   13.0886  -26.6960  -12.3902 N   0  0  0  0  0  0  0  0  0  0  0  0
   10.9657  -26.0761   -8.9312 O   0  5  0  0  0  0  0  0  0  0  0  0
    6.5245  -27.4548   -8.0758 O   0  0  0  0  0  0  0  0  0  0  0  0
   15.2874  -28.6166   -9.0626 F   0  0  0  0  0  0  0  0  0  0  0  0
   16.0014  -29.2904  -10.9966 F   0  0  0  0  0  0  0  0  0  0  0  0
   16.5626  -27.3235  -10.2585 F   0  0  0  0  0  0  0  0  0  0  0  0
    9.5294  -29.3818  -10.0789 H   0  0  0  0  0  0  0  0  0  0  0  0
    7.9840  -29.8454  -10.8325 H   0  0  0  0  0  0  0  0  0  0  0  0
    8.8981  -28.4855  -11.4824 H   0  0  0  0  0  0  0  0  0  0  0  0
    5.9720  -24.5798   -8.3882 H   0  0  0  0  0  0  0  0  0  0  0  0
    6.4833  -25.2219   -6.8078 H   0  0  0  0  0  0  0  0  0  0  0  0
    7.6450  -24.3626   -7.8176 H   0  0  0  0  0  0  0  0  0  0  0  0
    8.8676  -24.7352   -9.9038 H   0  0  0  0  0  0  0  0  0  0  0  0
    8.7187  -25.7593  -11.3165 H   0  0  0  0  0  0  0  0  0  0  0  0
   12.8036  -26.2765  -13.2671 H   0  0  0  0  0  0  0  0  0  0  0  0
  1  2  1  0  0  0  0
  1  3  2  0  0  0  0
  1  9  1  0  0  0  0
  2  7  1  0  0  0  0
  2 11  2  0  0  0  0
  3  8  1  0  0  0  0
  3 17  1  0  0  0  0
  4 10  1  0  0  0  0
  4 12  1  0  0  0  0
  4 13  2  0  0  0  0
  5 12  2  0  0  0  0
  5 14  1  0  0  0  0
  5 15  1  0  0  0  0
  6  9  1  0  0  0  0
  6 14  2  0  0  0  0
  6 16  1  0  0  0  0
 10 18  1  0  0  0  0
 10 19  1  0  0  0  0
 10 20  1  0  0  0  0
 11 17  1  0  0  0  0
 13 15  1  0  0  0  0
  7 21  1  0  0  0  0
  7 22  1  0  0  0  0
  7 23  1  0  0  0  0
  8 24  1  0  0  0  0
  8 25  1  0  0  0  0
  8 26  1  0  0  0  0
  9 27  1  0  0  0  0
  9 28  1  0  0  0  0
 15 29  1  0  0  0  0
M  CHG  1  16  -1
M  END
> <Hybrid2>
-2.6546499729156494

> <Hybrid2>
-1.516401

$$$$
C49048252
  -OEChem-02152218493D

 34 35  0     1  0  0  0  0  0999 V2000
    8.2455  -26.4342   -9.4630 C   0  0  0  0  0  0  0  0  0  0  0  0
    7.1381  -26.6157   -8.6311 C   0  0  0  0  0  0  0  0  0  0  0  0
    8.3461  -28.8231   -9.9223 C   0  0  0  0  0  0  0  0  0  0  0  0
    8.8460  -27.5315  -10.1050 C   0  0  0  0  0  0  0  0  0  0  0  0
    6.6640  -27.9011   -8.4676 C   0  0  0  0  0  0  0  0  0  0  0  0
    7.2517  -28.9752   -9.0960 C   0  0  0  0  0  0  0  0  0  0  0  0
   14.4534  -27.8148  -11.4699 C   0  0  0  0  0  0  0  0  0  0  0  0
    5.5864  -29.6948   -7.9167 C   0  0  0  0  0  0  0  0  0  0  0  0
    9.6547  -27.0532  -12.4547 C   0  0  0  0  0  0  0  0  0  0  0  0
   13.3185  -25.8026  -12.5780 C   0  0  0  0  0  0  0  0  0  0  0  0
   10.0289  -27.3131  -10.9883 C   0  0  1  0  0  0  0  0  0  0  0  0
   13.1583  -27.0225  -11.6873 C   0  0  2  0  0  0  0  0  0  0  0  0
   10.8750  -26.2292  -10.5196 N   0  0  0  0  0  0  0  0  0  0  0  0
   15.3992  -27.1446  -10.9628 O   0  5  0  0  0  0  0  0  0  0  0  0
   14.4325  -29.0281  -11.8173 O   0  0  0  0  0  0  0  0  0  0  0  0
   12.5724  -27.6970   -9.2272 O   0  0  0  0  0  0  0  0  0  0  0  0
   13.1539  -25.2962   -9.7314 O   0  0  0  0  0  0  0  0  0  0  0  0
    5.6014  -28.2687   -7.7011 O   0  0  0  0  0  0  0  0  0  0  0  0
    6.6307  -30.1498   -8.8013 O   0  0  0  0  0  0  0  0  0  0  0  0
   12.5114  -26.5425  -10.1020 S   0  0  0  0  0  0  0  0  0  0  0  0
    8.6407  -25.4322   -9.6120 H   0  0  0  0  0  0  0  0  0  0  0  0
    6.6717  -25.7723   -8.1352 H   0  0  0  0  0  0  0  0  0  0  0  0
    8.7991  -29.6781  -10.4126 H   0  0  0  0  0  0  0  0  0  0  0  0
    5.7035  -30.1966   -6.9492 H   0  0  0  0  0  0  0  0  0  0  0  0
    4.6172  -29.9749   -8.3445 H   0  0  0  0  0  0  0  0  0  0  0  0
    9.0026  -26.1769  -12.5384 H   0  0  0  0  0  0  0  0  0  0  0  0
   10.5462  -26.8723  -13.0657 H   0  0  0  0  0  0  0  0  0  0  0  0
    9.1303  -27.9081  -12.8960 H   0  0  0  0  0  0  0  0  0  0  0  0
   14.0630  -25.1145  -12.1634 H   0  0  0  0  0  0  0  0  0  0  0  0
   13.6533  -26.0779  -13.5844 H   0  0  0  0  0  0  0  0  0  0  0  0
   12.3719  -25.2606  -12.6734 H   0  0  0  0  0  0  0  0  0  0  0  0
   10.6821  -28.2032  -10.9768 H   0  0  0  0  0  0  0  0  0  0  0  0
   12.4084  -27.6893  -12.1289 H   0  0  0  0  0  0  0  0  0  0  0  0
   10.6960  -25.3096  -10.9644 H   0  0  0  0  0  0  0  0  0  0  0  0
  1  2  2  0  0  0  0
  1  4  1  0  0  0  0
  2  5  1  0  0  0  0
  3  4  2  0  0  0  0
  3  6  1  0  0  0  0
  4 11  1  0  0  0  0
  5  6  2  0  0  0  0
  5 18  1  0  0  0  0
  6 19  1  0  0  0  0
  7 12  1  0  0  0  0
  7 14  1  0  0  0  0
  7 15  2  0  0  0  0
  8 18  1  0  0  0  0
  8 19  1  0  0  0  0
  9 11  1  0  0  0  0
 10 12  1  0  0  0  0
 11 13  1  0  0  0  0
 12 20  1  0  0  0  0
 13 20  1  0  0  0  0
 16 20  2  0  0  0  0
 17 20  2  0  0  0  0
  1 21  1  0  0  0  0
  2 22  1  0  0  0  0
  3 23  1  0  0  0  0
  8 24  1  0  0  0  0
  8 25  1  0  0  0  0
  9 26  1  0  0  0  0
  9 27  1  0  0  0  0
  9 28  1  0  0  0  0
 10 29  1  0  0  0  0
 10 30  1  0  0  0  0
 10 31  1  0  0  0  0
 11 32  1  0  0  0  0
 12 33  1  0  0  0  0
 13 34  1  0  0  0  0
M  CHG  1  14  -1
M  END
> <Hybrid2>
-3.044954776763916

> <Hybrid2>
-3.044955

$$$$
C49048252
  -OEChem-02152218493D

 34 35  0     1  0  0  0  0  0999 V2000
    9.6635  -26.1632  -11.6857 C   0  0  0  0  0  0  0  0  0  0  0  0
   10.9316  -26.3615  -12.2371 C   0  0  0  0  0  0  0  0  0  0  0  0
   10.4758  -26.8002   -9.4805 C   0  0  0  0  0  0  0  0  0  0  0  0
    9.4369  -26.3812  -10.3153 C   0  0  0  0  0  0  0  0  0  0  0  0
   11.9401  -26.7753  -11.3913 C   0  0  0  0  0  0  0  0  0  0  0  0
   11.7183  -26.9887  -10.0499 C   0  0  0  0  0  0  0  0  0  0  0  0
    6.9321  -29.9940   -9.5187 C   0  0  0  0  0  0  0  0  0  0  0  0
   13.7973  -27.4081  -10.4789 C   0  0  0  0  0  0  0  0  0  0  0  0
    7.5655  -24.7246   -9.9183 C   0  0  0  0  0  0  0  0  0  0  0  0
    5.4948  -29.4908   -7.4582 C   0  0  0  0  0  0  0  0  0  0  0  0
    8.0735  -26.1638   -9.7489 C   0  0  1  0  0  0  0  0  0  0  0  0
    6.4712  -28.9537   -8.4902 C   0  0  2  0  0  0  0  0  0  0  0  0
    7.0918  -27.0777  -10.3073 N   0  0  0  0  0  0  0  0  0  0  0  0
    5.9952  -30.5271  -10.1812 O   0  5  0  0  0  0  0  0  0  0  0  0
    8.1754  -30.2007   -9.5874 O   0  0  0  0  0  0  0  0  0  0  0  0
    4.7101  -28.0909  -10.2236 O   0  0  0  0  0  0  0  0  0  0  0  0
    5.4594  -26.5521   -8.3723 O   0  0  0  0  0  0  0  0  0  0  0  0
   13.2312  -27.0175  -11.7466 O   0  0  0  0  0  0  0  0  0  0  0  0
   12.8428  -27.3914   -9.3976 O   0  0  0  0  0  0  0  0  0  0  0  0
    5.7517  -27.5771   -9.3559 S   0  0  0  0  0  0  0  0  0  0  0  0
    8.8493  -25.8359  -12.3276 H   0  0  0  0  0  0  0  0  0  0  0  0
   11.1107  -26.1936  -13.2928 H   0  0  0  0  0  0  0  0  0  0  0  0
   10.3148  -26.9707   -8.4214 H   0  0  0  0  0  0  0  0  0  0  0  0
   14.2018  -28.4225  -10.5734 H   0  0  0  0  0  0  0  0  0  0  0  0
   14.6166  -26.7227  -10.2343 H   0  0  0  0  0  0  0  0  0  0  0  0
    7.5415  -24.4446  -10.9771 H   0  0  0  0  0  0  0  0  0  0  0  0
    6.5533  -24.6108   -9.5142 H   0  0  0  0  0  0  0  0  0  0  0  0
    8.2044  -24.0057   -9.3930 H   0  0  0  0  0  0  0  0  0  0  0  0
    4.6006  -29.8961   -7.9440 H   0  0  0  0  0  0  0  0  0  0  0  0
    5.9375  -30.2980   -6.8641 H   0  0  0  0  0  0  0  0  0  0  0  0
    5.1779  -28.6999   -6.7704 H   0  0  0  0  0  0  0  0  0  0  0  0
    8.0723  -26.3791   -8.6660 H   0  0  0  0  0  0  0  0  0  0  0  0
    7.3525  -28.5566   -7.9731 H   0  0  0  0  0  0  0  0  0  0  0  0
    6.8986  -26.9495  -11.3181 H   0  0  0  0  0  0  0  0  0  0  0  0
  1  2  2  0  0  0  0
  1  4  1  0  0  0  0
  2  5  1  0  0  0  0
  3  4  2  0  0  0  0
  3  6  1  0  0  0  0
  4 11  1  0  0  0  0
  5  6  2  0  0  0  0
  5 18  1  0  0  0  0
  6 19  1  0  0  0  0
  7 12  1  0  0  0  0
  7 14  1  0  0  0  0
  7 15  2  0  0  0  0
  8 18  1  0  0  0  0
  8 19  1  0  0  0  0
  9 11  1  0  0  0  0
 10 12  1  0  0  0  0
 11 13  1  0  0  0  0
 12 20  1  0  0  0  0
 13 20  1  0  0  0  0
 16 20  2  0  0  0  0
 17 20  2  0  0  0  0
  1 21  1  0  0  0  0
  2 22  1  0  0  0  0
  3 23  1  0  0  0  0
  8 24  1  0  0  0  0
  8 25  1  0  0  0  0
  9 26  1  0  0  0  0
  9 27  1  0  0  0  0
  9 28  1  0  0  0  0
 10 29  1  0  0  0  0
 10 30  1  0  0  0  0
 10 31  1  0  0  0  0
 11 32  1  0  0  0  0
 12 33  1  0  0  0  0
 13 34  1  0  0  0  0
M  CHG  1  14  -1
M  END
> <Hybrid2>
-3.044954776763916

> <Hybrid2>
-2.906243

$$$$
C38784432
  -OEChem-02152218493D

 30 32  0     1  0  0  0  0  0999 V2000
   12.7124  -27.1266  -11.0705 C   0  0  0  0  0  0  0  0  0  0  0  0
   10.8837  -26.5468  -12.5211 C   0  0  0  0  0  0  0  0  0  0  0  0
   13.4187  -27.5045  -12.2010 C   0  0  0  0  0  0  0  0  0  0  0  0
   11.6720  -26.9505  -13.5867 C   0  0  0  0  0  0  0  0  0  0  0  0
   11.4214  -26.6397  -11.2422 C   0  0  0  0  0  0  0  0  0  0  0  0
   10.2282  -24.7525  -10.1658 C   0  0  0  0  0  0  0  0  0  0  0  0
    8.9442  -24.3468  -10.2101 C   0  0  0  0  0  0  0  0  0  0  0  0
    8.1209  -26.4152  -10.0396 C   0  0  0  0  0  0  0  0  0  0  0  0
    8.1051  -28.6533   -9.7973 C   0  0  0  0  0  0  0  0  0  0  0  0
    8.7139  -22.8537  -10.3165 C   0  0  0  0  0  0  0  0  0  0  0  0
   10.6151  -26.2187  -10.0577 C   0  0  1  0  0  0  0  0  0  0  0  0
    6.4880  -30.0031   -8.1036 C   0  0  0  0  0  0  0  0  0  0  0  0
   12.9300  -27.4288  -13.4592 N   0  0  0  0  0  0  0  0  0  0  0  0
    7.8326  -25.1607  -10.1564 N   0  0  0  0  0  0  0  0  0  0  0  0
    9.3951  -28.3823   -9.8172 N   0  0  0  0  0  0  0  0  0  0  0  0
    7.3184  -27.5333   -9.9288 N   0  0  0  0  0  0  0  0  0  0  0  0
    9.3938  -26.9981   -9.9816 N   0  0  0  0  0  0  0  0  0  0  0  0
    9.6187  -22.2145  -10.9227 O   0  5  0  0  0  0  0  0  0  0  0  0
    7.6463  -22.4377   -9.7856 O   0  0  0  0  0  0  0  0  0  0  0  0
    7.4414  -30.2369   -9.6221 S   0  0  0  0  0  0  0  0  0  0  0  0
   13.1601  -27.2123  -10.0862 H   0  0  0  0  0  0  0  0  0  0  0  0
    9.8800  -26.1709  -12.6873 H   0  0  0  0  0  0  0  0  0  0  0  0
   14.4291  -27.8920  -12.1208 H   0  0  0  0  0  0  0  0  0  0  0  0
   11.2989  -26.8979  -14.6042 H   0  0  0  0  0  0  0  0  0  0  0  0
   11.0393  -24.0287  -10.1985 H   0  0  0  0  0  0  0  0  0  0  0  0
   11.2092  -26.3679   -9.1500 H   0  0  0  0  0  0  0  0  0  0  0  0
    5.9842  -30.9345   -7.8338 H   0  0  0  0  0  0  0  0  0  0  0  0
    5.7380  -29.2224   -8.2528 H   0  0  0  0  0  0  0  0  0  0  0  0
    7.1539  -29.7080   -7.2890 H   0  0  0  0  0  0  0  0  0  0  0  0
    6.3062  -27.5257   -9.9280 H   0  0  0  0  0  0  0  0  0  0  0  0
  1  3  2  0  0  0  0
  1  5  1  0  0  0  0
  2  4  1  0  0  0  0
  2  5  2  0  0  0  0
  3 13  1  0  0  0  0
  4 13  2  0  0  0  0
  5 11  1  0  0  0  0
  6  7  2  0  0  0  0
  6 11  1  0  0  0  0
  7 10  1  0  0  0  0
  7 14  1  0  0  0  0
  8 14  2  0  0  0  0
  8 16  1  0  0  0  0
  8 17  1  0  0  0  0
  9 15  2  0  0  0  0
  9 16  1  0  0  0  0
  9 20  1  0  0  0  0
 10 18  1  0  0  0  0
 10 19  2  0  0  0  0
 11 17  1  0  0  0  0
 12 20  1  0  0  0  0
 15 17  1  0  0  0  0
  1 21  1  0  0  0  0
  2 22  1  0  0  0  0
  3 23  1  0  0  0  0
  4 24  1  0  0  0  0
  6 25  1  0  0  0  0
 11 26  1  0  0  0  0
 12 27  1  0  0  0  0
 12 28  1  0  0  0  0
 12 29  1  0  0  0  0
 16 30  1  0  0  0  0
M  CHG  1  18  -1
M  END
> <Hybrid2>
-6.765653610229492

> <Hybrid2>
-6.765654

$$$$
C38784432
  -OEChem-02152218493D

 30 32  0     1  0  0  0  0  0999 V2000
   12.4879  -26.9563  -11.1165 C   0  0  0  0  0  0  0  0  0  0  0  0
   10.5773  -26.1366  -12.3256 C   0  0  0  0  0  0  0  0  0  0  0  0
   13.0983  -27.1807  -12.3400 C   0  0  0  0  0  0  0  0  0  0  0  0
   11.2732  -26.3975  -13.4950 C   0  0  0  0  0  0  0  0  0  0  0  0
   11.2034  -26.4240  -11.1179 C   0  0  0  0  0  0  0  0  0  0  0  0
   10.1502  -24.6890   -9.6952 C   0  0  0  0  0  0  0  0  0  0  0  0
    8.8794  -24.2556   -9.5830 C   0  0  0  0  0  0  0  0  0  0  0  0
    8.0076  -26.3102   -9.6470 C   0  0  0  0  0  0  0  0  0  0  0  0
    7.9408  -28.5590   -9.7261 C   0  0  0  0  0  0  0  0  0  0  0  0
    8.6878  -22.7585   -9.4574 C   0  0  0  0  0  0  0  0  0  0  0  0
   10.4987  -26.1628   -9.8273 C   0  0  1  0  0  0  0  0  0  0  0  0
    6.4105  -30.1071   -8.1238 C   0  0  0  0  0  0  0  0  0  0  0  0
   12.5220  -26.9142  -13.5335 N   0  0  0  0  0  0  0  0  0  0  0  0
    7.7501  -25.0465   -9.5613 N   0  0  0  0  0  0  0  0  0  0  0  0
    9.2337  -28.3137   -9.8056 N   0  0  0  0  0  0  0  0  0  0  0  0
    7.1814  -27.4164   -9.6360 N   0  0  0  0  0  0  0  0  0  0  0  0
    9.2629  -26.9206   -9.7702 N   0  0  0  0  0  0  0  0  0  0  0  0
    9.2479  -22.2295   -8.4568 O   0  5  0  0  0  0  0  0  0  0  0  0
    7.9925  -22.2296  -10.3692 O   0  0  0  0  0  0  0  0  0  0  0  0
    7.2433  -30.1378   -9.7285 S   0  0  0  0  0  0  0  0  0  0  0  0
   13.0032  -27.1923  -10.1916 H   0  0  0  0  0  0  0  0  0  0  0  0
    9.5762  -25.7207  -12.3593 H   0  0  0  0  0  0  0  0  0  0  0  0
   14.0995  -27.5957  -12.3933 H   0  0  0  0  0  0  0  0  0  0  0  0
   10.8289  -26.1909  -14.4630 H   0  0  0  0  0  0  0  0  0  0  0  0
   10.9785  -23.9844   -9.6861 H   0  0  0  0  0  0  0  0  0  0  0  0
   11.1524  -26.4534   -8.9983 H   0  0  0  0  0  0  0  0  0  0  0  0
    5.8993  -31.0575   -7.9520 H   0  0  0  0  0  0  0  0  0  0  0  0
    5.6759  -29.2983   -8.1024 H   0  0  0  0  0  0  0  0  0  0  0  0
    7.1426  -29.9462   -7.3288 H   0  0  0  0  0  0  0  0  0  0  0  0
    6.1725  -27.3889   -9.5568 H   0  0  0  0  0  0  0  0  0  0  0  0
  1  3  2  0  0  0  0
  1  5  1  0  0  0  0
  2  4  1  0  0  0  0
  2  5  2  0  0  0  0
  3 13  1  0  0  0  0
  4 13  2  0  0  0  0
  5 11  1  0  0  0  0
  6  7  2  0  0  0  0
  6 11  1  0  0  0  0
  7 10  1  0  0  0  0
  7 14  1  0  0  0  0
  8 14  2  0  0  0  0
  8 16  1  0  0  0  0
  8 17  1  0  0  0  0
  9 15  2  0  0  0  0
  9 16  1  0  0  0  0
  9 20  1  0  0  0  0
 10 18  1  0  0  0  0
 10 19  2  0  0  0  0
 11 17  1  0  0  0  0
 12 20  1  0  0  0  0
 15 17  1  0  0  0  0
  1 21  1  0  0  0  0
  2 22  1  0  0  0  0
  3 23  1  0  0  0  0
  4 24  1  0  0  0  0
  6 25  1  0  0  0  0
 11 26  1  0  0  0  0
 12 27  1  0  0  0  0
 12 28  1  0  0  0  0
 12 29  1  0  0  0  0
 16 30  1  0  0  0  0
M  CHG  1  18  -1
M  END
> <Hybrid2>
-6.765653610229492

> <Hybrid2>
-6.067286

$$$$
C61226408
  -OEChem-02152218493D

 41 41  0     1  0  0  0  0  0999 V2000
    6.7879  -24.5711  -10.9311 C   0  0  0  0  0  0  0  0  0  0  0  0
    8.1624  -27.4785   -9.6812 C   0  0  0  0  0  0  0  0  0  0  0  0
   10.8848  -24.8613   -9.8576 C   0  0  0  0  0  0  0  0  0  0  0  0
   12.2176  -24.8136  -10.5995 C   0  0  0  0  0  0  0  0  0  0  0  0
   10.4667  -26.6173  -11.5093 C   0  0  0  0  0  0  0  0  0  0  0  0
   10.3175  -26.2868  -10.0140 C   0  0  1  0  0  0  0  0  0  0  0  0
   11.0751  -27.2975   -9.1423 C   0  0  0  0  0  0  0  0  0  0  0  0
    5.8855  -29.1438   -7.9742 C   0  0  0  0  0  0  0  0  0  0  0  0
    4.7903  -24.1629   -9.5880 C   0  0  0  0  0  0  0  0  0  0  0  0
    5.8818  -28.4388   -9.2879 C   0  0  0  0  0  0  0  0  0  0  0  0
    6.2815  -26.0366   -8.8576 C   0  0  0  0  0  0  0  0  0  0  0  0
    5.7276  -25.2732  -10.0582 C   0  0  2  0  0  0  0  0  0  0  0  0
    8.9193  -26.3135   -9.6343 N   0  0  0  0  0  0  0  0  0  0  0  0
    6.8201  -27.3242   -9.2889 N   0  0  0  0  0  0  0  0  0  0  0  0
    7.5118  -23.7396  -10.3098 O   0  5  0  0  0  0  0  0  0  0  0  0
    6.8164  -24.8998  -12.1496 O   0  0  0  0  0  0  0  0  0  0  0  0
    8.6374  -28.5573  -10.0489 O   0  0  0  0  0  0  0  0  0  0  0  0
   13.0392  -26.8375  -12.0713 O   0  0  0  0  0  0  0  0  0  0  0  0
   11.7012  -24.9891  -13.1773 O   0  0  0  0  0  0  0  0  0  0  0  0
   11.9895  -25.8403  -12.0415 S   0  0  0  0  0  0  0  0  0  0  0  0
   11.0087  -24.5717   -8.8085 H   0  0  0  0  0  0  0  0  0  0  0  0
   10.2028  -24.1354  -10.3203 H   0  0  0  0  0  0  0  0  0  0  0  0
   12.4835  -23.8003  -10.9084 H   0  0  0  0  0  0  0  0  0  0  0  0
   13.0265  -25.2400  -10.0002 H   0  0  0  0  0  0  0  0  0  0  0  0
   10.5144  -27.6895  -11.7163 H   0  0  0  0  0  0  0  0  0  0  0  0
    9.6635  -26.1649  -12.1015 H   0  0  0  0  0  0  0  0  0  0  0  0
   10.6466  -28.2858   -9.2805 H   0  0  0  0  0  0  0  0  0  0  0  0
   10.9914  -27.0082   -8.0989 H   0  0  0  0  0  0  0  0  0  0  0  0
   12.1215  -27.3115   -9.4326 H   0  0  0  0  0  0  0  0  0  0  0  0
    5.6006  -28.4395   -7.1787 H   0  0  0  0  0  0  0  0  0  0  0  0
    5.1660  -29.9753   -8.0025 H   0  0  0  0  0  0  0  0  0  0  0  0
    6.8927  -29.5371   -7.7721 H   0  0  0  0  0  0  0  0  0  0  0  0
    5.3114  -23.4454   -8.9440 H   0  0  0  0  0  0  0  0  0  0  0  0
    4.3806  -23.6142  -10.4428 H   0  0  0  0  0  0  0  0  0  0  0  0
    3.9458  -24.5667   -9.0186 H   0  0  0  0  0  0  0  0  0  0  0  0
    6.1675  -29.1493  -10.0775 H   0  0  0  0  0  0  0  0  0  0  0  0
    4.8699  -28.0564   -9.4873 H   0  0  0  0  0  0  0  0  0  0  0  0
    7.0960  -25.4753   -8.3866 H   0  0  0  0  0  0  0  0  0  0  0  0
    5.5166  -26.2170   -8.0950 H   0  0  0  0  0  0  0  0  0  0  0  0
    5.1652  -25.9661  -10.6979 H   0  0  0  0  0  0  0  0  0  0  0  0
    8.4799  -25.4569   -9.3252 H   0  0  0  0  0  0  0  0  0  0  0  0
  1 12  1  0  0  0  0
  1 15  1  0  0  0  0
  1 16  2  0  0  0  0
  2 13  1  0  0  0  0
  2 14  1  0  0  0  0
  2 17  2  0  0  0  0
  3  4  1  0  0  0  0
  3  6  1  0  0  0  0
  4 20  1  0  0  0  0
  5  6  1  0  0  0  0
  5 20  1  0  0  0  0
  6  7  1  0  0  0  0
  6 13  1  0  0  0  0
  8 10  1  0  0  0  0
  9 12  1  0  0  0  0
 10 14  1  0  0  0  0
 11 12  1  0  0  0  0
 11 14  1  0  0  0  0
 18 20  2  0  0  0  0
 19 20  2  0  0  0  0
  3 21  1  0  0  0  0
  3 22  1  0  0  0  0
  4 23  1  0  0  0  0
  4 24  1  0  0  0  0
  5 25  1  0  0  0  0
  5 26  1  0  0  0  0
  7 27  1  0  0  0  0
  7 28  1  0  0  0  0
  7 29  1  0  0  0  0
  8 30  1  0  0  0  0
  8 31  1  0  0  0  0
  8 32  1  0  0  0  0
  9 33  1  0  0  0  0
  9 34  1  0  0  0  0
  9 35  1  0  0  0  0
 10 36  1  0  0  0  0
 10 37  1  0  0  0  0
 11 38  1  0  0  0  0
 11 39  1  0  0  0  0
 12 40  1  0  0  0  0
 13 41  1  0  0  0  0
M  CHG  1  15  -1
M  END
> <Hybrid2>
-2.4849720001220703

> <Hybrid2>
-2.484972

$$$$
C61226408
  -OEChem-02152218493D

 41 41  0     1  0  0  0  0  0999 V2000
   11.7739  -23.9784  -12.0931 C   0  0  0  0  0  0  0  0  0  0  0  0
   11.7756  -26.9867  -10.4038 C   0  0  0  0  0  0  0  0  0  0  0  0
    8.2107  -26.1654  -11.3571 C   0  0  0  0  0  0  0  0  0  0  0  0
    6.9478  -25.9545  -10.5267 C   0  0  0  0  0  0  0  0  0  0  0  0
    9.2480  -25.7611   -9.1783 C   0  0  0  0  0  0  0  0  0  0  0  0
    9.3090  -26.6849  -10.4073 C   0  0  1  0  0  0  0  0  0  0  0  0
    9.0732  -28.1497  -10.0148 C   0  0  0  0  0  0  0  0  0  0  0  0
   14.6055  -28.5813  -10.9701 C   0  0  0  0  0  0  0  0  0  0  0  0
   13.4783  -24.2018  -13.8269 C   0  0  0  0  0  0  0  0  0  0  0  0
   14.2634  -27.1680  -10.6411 C   0  0  0  0  0  0  0  0  0  0  0  0
   12.9256  -26.2591  -12.5117 C   0  0  0  0  0  0  0  0  0  0  0  0
   13.0646  -24.7396  -12.4587 C   0  0  2  0  0  0  0  0  0  0  0  0
   10.6079  -26.5853  -11.0421 N   0  0  0  0  0  0  0  0  0  0  0  0
   12.9494  -26.8109  -11.1594 N   0  0  0  0  0  0  0  0  0  0  0  0
   10.7976  -24.1990  -12.8674 O   0  5  0  0  0  0  0  0  0  0  0  0
   11.8333  -23.2319  -11.0767 O   0  0  0  0  0  0  0  0  0  0  0  0
   11.7737  -27.4511   -9.2597 O   0  0  0  0  0  0  0  0  0  0  0  0
    6.9752  -26.2019   -7.9046 O   0  0  0  0  0  0  0  0  0  0  0  0
    7.3835  -23.9137   -8.9182 O   0  0  0  0  0  0  0  0  0  0  0  0
    7.5197  -25.3553   -8.9457 S   0  0  0  0  0  0  0  0  0  0  0  0
    8.0218  -26.8475  -12.1930 H   0  0  0  0  0  0  0  0  0  0  0  0
    8.5123  -25.1992  -11.7834 H   0  0  0  0  0  0  0  0  0  0  0  0
    6.2746  -25.2209  -10.9759 H   0  0  0  0  0  0  0  0  0  0  0  0
    6.4127  -26.8938  -10.3636 H   0  0  0  0  0  0  0  0  0  0  0  0
    9.6388  -26.2212   -8.2671 H   0  0  0  0  0  0  0  0  0  0  0  0
    9.7674  -24.8142   -9.3628 H   0  0  0  0  0  0  0  0  0  0  0  0
    9.8654  -28.4766   -9.3478 H   0  0  0  0  0  0  0  0  0  0  0  0
    9.0730  -28.7670  -10.9083 H   0  0  0  0  0  0  0  0  0  0  0  0
    8.1149  -28.2386   -9.5116 H   0  0  0  0  0  0  0  0  0  0  0  0
   14.6068  -28.7142  -12.0620 H   0  0  0  0  0  0  0  0  0  0  0  0
   15.6024  -28.8196  -10.5707 H   0  0  0  0  0  0  0  0  0  0  0  0
   13.8599  -29.2532  -10.5200 H   0  0  0  0  0  0  0  0  0  0  0  0
   12.7345  -24.4452  -14.5941 H   0  0  0  0  0  0  0  0  0  0  0  0
   13.5892  -23.1125  -13.7974 H   0  0  0  0  0  0  0  0  0  0  0  0
   14.4370  -24.6231  -14.1492 H   0  0  0  0  0  0  0  0  0  0  0  0
   14.2643  -27.0435   -9.5482 H   0  0  0  0  0  0  0  0  0  0  0  0
   15.0179  -26.5030  -11.0865 H   0  0  0  0  0  0  0  0  0  0  0  0
   11.9722  -26.5429  -12.9710 H   0  0  0  0  0  0  0  0  0  0  0  0
   13.7275  -26.7266  -13.0927 H   0  0  0  0  0  0  0  0  0  0  0  0
   13.8360  -24.4735  -11.7240 H   0  0  0  0  0  0  0  0  0  0  0  0
   10.6667  -26.2117  -11.9798 H   0  0  0  0  0  0  0  0  0  0  0  0
  1 12  1  0  0  0  0
  1 15  1  0  0  0  0
  1 16  2  0  0  0  0
  2 13  1  0  0  0  0
  2 14  1  0  0  0  0
  2 17  2  0  0  0  0
  3  4  1  0  0  0  0
  3  6  1  0  0  0  0
  4 20  1  0  0  0  0
  5  6  1  0  0  0  0
  5 20  1  0  0  0  0
  6  7  1  0  0  0  0
  6 13  1  0  0  0  0
  8 10  1  0  0  0  0
  9 12  1  0  0  0  0
 10 14  1  0  0  0  0
 11 12  1  0  0  0  0
 11 14  1  0  0  0  0
 18 20  2  0  0  0  0
 19 20  2  0  0  0  0
  3 21  1  0  0  0  0
  3 22  1  0  0  0  0
  4 23  1  0  0  0  0
  4 24  1  0  0  0  0
  5 25  1  0  0  0  0
  5 26  1  0  0  0  0
  7 27  1  0  0  0  0
  7 28  1  0  0  0  0
  7 29  1  0  0  0  0
  8 30  1  0  0  0  0
  8 31  1  0  0  0  0
  8 32  1  0  0  0  0
  9 33  1  0  0  0  0
  9 34  1  0  0  0  0
  9 35  1  0  0  0  0
 10 36  1  0  0  0  0
 10 37  1  0  0  0  0
 11 38  1  0  0  0  0
 11 39  1  0  0  0  0
 12 40  1  0  0  0  0
 13 41  1  0  0  0  0
M  CHG  1  15  -1
M  END
> <Hybrid2>
-2.4849720001220703

> <Hybrid2>
-1.881116

$$$$
C13543809
  -OEChem-02152218493D

 33 34  0     0  0  0  0  0  0999 V2000
    6.5806  -26.7357   -8.2559 C   0  0  0  0  0  0  0  0  0  0  0  0
    7.6895  -26.9065   -9.0336 C   0  0  0  0  0  0  0  0  0  0  0  0
    8.0921  -25.6077   -9.4544 C   0  0  0  0  0  0  0  0  0  0  0  0
    8.3159  -28.0983   -9.3617 C   0  0  0  0  0  0  0  0  0  0  0  0
    9.7562  -26.6591  -10.5409 C   0  0  0  0  0  0  0  0  0  0  0  0
   13.7932  -27.3721  -11.1148 C   0  0  0  0  0  0  0  0  0  0  0  0
   16.9870  -26.8703  -10.4431 C   0  0  0  0  0  0  0  0  0  0  0  0
   14.1651  -29.8831   -9.0074 C   0  0  0  0  0  0  0  0  0  0  0  0
   12.4172  -27.3132  -10.4741 C   0  0  0  0  0  0  0  0  0  0  0  0
   16.1813  -28.0746  -10.7942 C   0  0  0  0  0  0  0  0  0  0  0  0
   14.5551  -28.4444   -8.9808 C   0  0  0  0  0  0  0  0  0  0  0  0
    9.1837  -25.4450  -10.2537 N   0  0  0  0  0  0  0  0  0  0  0  0
    7.2737  -24.6709   -8.9627 N   0  0  0  0  0  0  0  0  0  0  0  0
    9.4084  -27.9386  -10.1614 N   0  0  0  0  0  0  0  0  0  0  0  0
    6.3752  -25.3818   -8.2460 N   0  0  0  0  0  0  0  0  0  0  0  0
   14.8032  -27.9416  -10.3267 N   0  0  0  0  0  0  0  0  0  0  0  0
    7.9036  -29.2236   -8.9520 O   0  5  0  0  0  0  0  0  0  0  0  0
   13.9951  -26.9445  -12.2542 O   0  0  0  0  0  0  0  0  0  0  0  0
   11.1866  -26.5684  -11.5745 S   0  0  0  0  0  0  0  0  0  0  0  0
    5.9251  -27.4065   -7.7180 H   0  0  0  0  0  0  0  0  0  0  0  0
   16.9940  -26.7388   -9.3510 H   0  0  0  0  0  0  0  0  0  0  0  0
   18.0181  -27.0015  -10.8031 H   0  0  0  0  0  0  0  0  0  0  0  0
   16.5436  -25.9819  -10.9165 H   0  0  0  0  0  0  0  0  0  0  0  0
   14.9730  -30.4741   -9.4636 H   0  0  0  0  0  0  0  0  0  0  0  0
   13.9893  -30.2343   -7.9799 H   0  0  0  0  0  0  0  0  0  0  0  0
   13.2450  -30.0026   -9.5982 H   0  0  0  0  0  0  0  0  0  0  0  0
   12.0842  -28.3263  -10.2317 H   0  0  0  0  0  0  0  0  0  0  0  0
   12.4634  -26.7083   -9.5642 H   0  0  0  0  0  0  0  0  0  0  0  0
   16.1792  -28.1991  -11.8871 H   0  0  0  0  0  0  0  0  0  0  0  0
   16.6357  -28.9598  -10.3252 H   0  0  0  0  0  0  0  0  0  0  0  0
   13.7426  -27.8606   -8.5235 H   0  0  0  0  0  0  0  0  0  0  0  0
   15.4702  -28.3315   -8.3809 H   0  0  0  0  0  0  0  0  0  0  0  0
    5.6397  -24.8753   -7.7702 H   0  0  0  0  0  0  0  0  0  0  0  0
  1  2  2  0  0  0  0
  1 15  1  0  0  0  0
  2  3  1  0  0  0  0
  2  4  1  0  0  0  0
  3 12  1  0  0  0  0
  3 13  2  0  0  0  0
  4 14  2  0  0  0  0
  4 17  1  0  0  0  0
  5 12  2  0  0  0  0
  5 14  1  0  0  0  0
  5 19  1  0  0  0  0
  6  9  1  0  0  0  0
  6 16  1  0  0  0  0
  6 18  2  0  0  0  0
  7 10  1  0  0  0  0
  8 11  1  0  0  0  0
  9 19  1  0  0  0  0
 10 16  1  0  0  0  0
 11 16  1  0  0  0  0
 13 15  1  0  0  0  0
  1 20  1  0  0  0  0
  7 21  1  0  0  0  0
  7 22  1  0  0  0  0
  7 23  1  0  0  0  0
  8 24  1  0  0  0  0
  8 25  1  0  0  0  0
  8 26  1  0  0  0  0
  9 27  1  0  0  0  0
  9 28  1  0  0  0  0
 10 29  1  0  0  0  0
 10 30  1  0  0  0  0
 11 31  1  0  0  0  0
 11 32  1  0  0  0  0
 15 33  1  0  0  0  0
M  CHG  1  17  -1
M  END
> <Hybrid2>
-3.92665433883667

> <Hybrid2>
-3.926654

$$$$
C13543809
  -OEChem-02152218493D

 33 34  0     0  0  0  0  0  0999 V2000
    6.3296  -27.6529   -8.3289 C   0  0  0  0  0  0  0  0  0  0  0  0
    7.4141  -27.6049   -9.1566 C   0  0  0  0  0  0  0  0  0  0  0  0
    7.7456  -26.2290   -9.3092 C   0  0  0  0  0  0  0  0  0  0  0  0
    8.0769  -28.6711   -9.7434 C   0  0  0  0  0  0  0  0  0  0  0  0
    9.4096  -26.9506  -10.6380 C   0  0  0  0  0  0  0  0  0  0  0  0
   13.4480  -27.3312  -11.4634 C   0  0  0  0  0  0  0  0  0  0  0  0
   16.1105  -29.0857  -12.3215 C   0  0  0  0  0  0  0  0  0  0  0  0
   14.5359  -27.9399   -8.4088 C   0  0  0  0  0  0  0  0  0  0  0  0
   12.0962  -27.4733  -10.7852 C   0  0  0  0  0  0  0  0  0  0  0  0
   15.8739  -27.9671  -11.3647 C   0  0  0  0  0  0  0  0  0  0  0  0
   14.3351  -28.7827   -9.6221 C   0  0  0  0  0  0  0  0  0  0  0  0
    8.7981  -25.8515  -10.0881 N   0  0  0  0  0  0  0  0  0  0  0  0
    6.9081  -25.4552   -8.6100 N   0  0  0  0  0  0  0  0  0  0  0  0
    9.1304  -28.2963  -10.5234 N   0  0  0  0  0  0  0  0  0  0  0  0
    6.0681  -26.3420   -8.0315 N   0  0  0  0  0  0  0  0  0  0  0  0
   14.5103  -28.0012  -10.8404 N   0  0  0  0  0  0  0  0  0  0  0  0
    7.7282  -29.8755   -9.5653 O   0  5  0  0  0  0  0  0  0  0  0  0
   13.5881  -26.6680  -12.4942 O   0  0  0  0  0  0  0  0  0  0  0  0
   10.7943  -26.5783  -11.6708 S   0  0  0  0  0  0  0  0  0  0  0  0
    5.7238  -28.4516   -7.9238 H   0  0  0  0  0  0  0  0  0  0  0  0
   15.4052  -29.0054  -13.1618 H   0  0  0  0  0  0  0  0  0  0  0  0
   17.1413  -29.0311  -12.7016 H   0  0  0  0  0  0  0  0  0  0  0  0
   15.9598  -30.0461  -11.8070 H   0  0  0  0  0  0  0  0  0  0  0  0
   13.8073  -27.1159   -8.4095 H   0  0  0  0  0  0  0  0  0  0  0  0
   14.3932  -28.5546   -7.5078 H   0  0  0  0  0  0  0  0  0  0  0  0
   15.5557  -27.5275   -8.4136 H   0  0  0  0  0  0  0  0  0  0  0  0
   11.8154  -28.5297  -10.7495 H   0  0  0  0  0  0  0  0  0  0  0  0
   12.1518  -27.0680   -9.7711 H   0  0  0  0  0  0  0  0  0  0  0  0
   16.5826  -28.0544  -10.5280 H   0  0  0  0  0  0  0  0  0  0  0  0
   16.0353  -27.0106  -11.8836 H   0  0  0  0  0  0  0  0  0  0  0  0
   15.0670  -29.6039   -9.6139 H   0  0  0  0  0  0  0  0  0  0  0  0
   13.3170  -29.1988   -9.6057 H   0  0  0  0  0  0  0  0  0  0  0  0
    5.3308  -25.9813   -7.4398 H   0  0  0  0  0  0  0  0  0  0  0  0
  1  2  2  0  0  0  0
  1 15  1  0  0  0  0
  2  3  1  0  0  0  0
  2  4  1  0  0  0  0
  3 12  1  0  0  0  0
  3 13  2  0  0  0  0
  4 14  2  0  0  0  0
  4 17  1  0  0  0  0
  5 12  2  0  0  0  0
  5 14  1  0  0  0  0
  5 19  1  0  0  0  0
  6  9  1  0  0  0  0
  6 16  1  0  0  0  0
  6 18  2  0  0  0  0
  7 10  1  0  0  0  0
  8 11  1  0  0  0  0
  9 19  1  0  0  0  0
 10 16  1  0  0  0  0
 11 16  1  0  0  0  0
 13 15  1  0  0  0  0
  1 20  1  0  0  0  0
  7 21  1  0  0  0  0
  7 22  1  0  0  0  0
  7 23  1  0  0  0  0
  8 24  1  0  0  0  0
  8 25  1  0  0  0  0
  8 26  1  0  0  0  0
  9 27  1  0  0  0  0
  9 28  1  0  0  0  0
 10 29  1  0  0  0  0
 10 30  1  0  0  0  0
 11 31  1  0  0  0  0
 11 32  1  0  0  0  0
 15 33  1  0  0  0  0
M  CHG  1  17  -1
M  END
> <Hybrid2>
-3.92665433883667

> <Hybrid2>
-3.765464

$$$$
C61827579
  -OEChem-02152218493D

 41 41  0     1  0  0  0  0  0999 V2000
    7.4202  -26.1527   -8.8778 C   0  0  0  0  0  0  0  0  0  0  0  0
    7.0732  -29.9471   -9.3242 C   0  0  0  0  0  0  0  0  0  0  0  0
    9.3084  -26.2230  -10.5243 C   0  0  0  0  0  0  0  0  0  0  0  0
   10.6560  -28.3801  -10.5553 C   0  0  0  0  0  0  0  0  0  0  0  0
   11.2762  -26.4921  -12.0069 C   0  0  0  0  0  0  0  0  0  0  0  0
   12.1084  -28.4273  -10.0916 C   0  0  0  0  0  0  0  0  0  0  0  0
   12.7019  -26.5956  -11.4660 C   0  0  2  0  0  0  0  0  0  0  0  0
   13.7173  -26.1646  -12.5149 C   0  0  0  0  0  0  0  0  0  0  0  0
    5.1209  -28.7354   -7.0657 C   0  0  0  0  0  0  0  0  0  0  0  0
    4.4561  -27.0181   -8.7347 C   0  0  0  0  0  0  0  0  0  0  0  0
    6.8086  -27.0290   -7.7957 C   0  0  0  0  0  0  0  0  0  0  0  0
    5.9983  -28.8563   -9.4392 C   0  0  0  0  0  0  0  0  0  0  0  0
    5.6273  -27.9128   -8.2695 C   0  0  0  0  0  0  0  0  0  0  0  0
   10.3260  -27.0333  -11.0353 N   0  0  0  0  0  0  0  0  0  0  0  0
    8.5160  -26.7597   -9.5063 N   0  0  0  0  0  0  0  0  0  0  0  0
    7.1830  -30.6697  -10.3579 O   0  5  0  0  0  0  0  0  0  0  0  0
    6.9767  -25.0342   -9.1275 O   0  0  0  0  0  0  0  0  0  0  0  0
    7.7139  -30.0085   -8.2419 O   0  0  0  0  0  0  0  0  0  0  0  0
    9.0616  -25.0920  -10.9571 O   0  0  0  0  0  0  0  0  0  0  0  0
   12.9858  -27.9559  -11.1155 O   0  0  0  0  0  0  0  0  0  0  0  0
   10.5171  -29.0476  -11.4065 H   0  0  0  0  0  0  0  0  0  0  0  0
    9.9907  -28.6933   -9.7548 H   0  0  0  0  0  0  0  0  0  0  0  0
   11.0678  -25.4497  -12.2457 H   0  0  0  0  0  0  0  0  0  0  0  0
   11.1603  -27.0909  -12.9153 H   0  0  0  0  0  0  0  0  0  0  0  0
   12.2559  -27.8388   -9.1758 H   0  0  0  0  0  0  0  0  0  0  0  0
   12.3902  -29.4620   -9.8634 H   0  0  0  0  0  0  0  0  0  0  0  0
   12.8201  -25.9678  -10.5790 H   0  0  0  0  0  0  0  0  0  0  0  0
   13.6151  -26.7801  -13.4091 H   0  0  0  0  0  0  0  0  0  0  0  0
   14.7288  -26.2757  -12.1235 H   0  0  0  0  0  0  0  0  0  0  0  0
   13.5556  -25.1205  -12.7846 H   0  0  0  0  0  0  0  0  0  0  0  0
    5.8917  -29.4025   -6.6686 H   0  0  0  0  0  0  0  0  0  0  0  0
    4.7930  -28.0825   -6.2489 H   0  0  0  0  0  0  0  0  0  0  0  0
    4.2674  -29.3618   -7.3503 H   0  0  0  0  0  0  0  0  0  0  0  0
    4.7351  -26.3974   -9.5925 H   0  0  0  0  0  0  0  0  0  0  0  0
    3.5862  -27.6192   -9.0222 H   0  0  0  0  0  0  0  0  0  0  0  0
    4.1379  -26.3387   -7.9351 H   0  0  0  0  0  0  0  0  0  0  0  0
    7.5960  -27.6600   -7.3620 H   0  0  0  0  0  0  0  0  0  0  0  0
    6.5000  -26.3605   -6.9834 H   0  0  0  0  0  0  0  0  0  0  0  0
    6.3092  -28.2353  -10.2923 H   0  0  0  0  0  0  0  0  0  0  0  0
    5.0875  -29.3719   -9.7753 H   0  0  0  0  0  0  0  0  0  0  0  0
    8.7768  -27.6856   -9.1413 H   0  0  0  0  0  0  0  0  0  0  0  0
  1 11  1  0  0  0  0
  1 15  1  0  0  0  0
  1 17  2  0  0  0  0
  2 12  1  0  0  0  0
  2 16  1  0  0  0  0
  2 18  2  0  0  0  0
  3 14  1  0  0  0  0
  3 15  1  0  0  0  0
  3 19  2  0  0  0  0
  4  6  1  0  0  0  0
  4 14  1  0  0  0  0
  5  7  1  0  0  0  0
  5 14  1  0  0  0  0
  6 20  1  0  0  0  0
  7  8  1  0  0  0  0
  7 20  1  0  0  0  0
  9 13  1  0  0  0  0
 10 13  1  0  0  0  0
 11 13  1  0  0  0  0
 12 13  1  0  0  0  0
  4 21  1  0  0  0  0
  4 22  1  0  0  0  0
  5 23  1  0  0  0  0
  5 24  1  0  0  0  0
  6 25  1  0  0  0  0
  6 26  1  0  0  0  0
  7 27  1  0  0  0  0
  8 28  1  0  0  0  0
  8 29  1  0  0  0  0
  8 30  1  0  0  0  0
  9 31  1  0  0  0  0
  9 32  1  0  0  0  0
  9 33  1  0  0  0  0
 10 34  1  0  0  0  0
 10 35  1  0  0  0  0
 10 36  1  0  0  0  0
 11 37  1  0  0  0  0
 11 38  1  0  0  0  0
 12 39  1  0  0  0  0
 12 40  1  0  0  0  0
 15 41  1  0  0  0  0
M  CHG  1  16  -1
M  END
> <Hybrid2>
-1.090104341506958

> <Hybrid2>
-1.090104

$$$$
C61827579
  -OEChem-02152218493D

 41 41  0     1  0  0  0  0  0999 V2000
    7.8554  -26.4305   -9.5404 C   0  0  0  0  0  0  0  0  0  0  0  0
    4.6632  -27.8901   -9.2064 C   0  0  0  0  0  0  0  0  0  0  0  0
    9.6403  -25.6812  -11.0852 C   0  0  0  0  0  0  0  0  0  0  0  0
   11.6053  -25.0372  -12.4437 C   0  0  0  0  0  0  0  0  0  0  0  0
   11.9881  -26.5380  -10.5172 C   0  0  0  0  0  0  0  0  0  0  0  0
   12.6073  -25.8706  -13.2252 C   0  0  0  0  0  0  0  0  0  0  0  0
   12.9934  -27.2960  -11.3895 C   0  0  2  0  0  0  0  0  0  0  0  0
   14.1113  -27.8888  -10.5424 C   0  0  0  0  0  0  0  0  0  0  0  0
    7.0081  -29.5936   -7.4159 C   0  0  0  0  0  0  0  0  0  0  0  0
    8.2576  -29.4979   -9.5615 C   0  0  0  0  0  0  0  0  0  0  0  0
    7.6452  -27.3552   -8.3520 C   0  0  0  0  0  0  0  0  0  0  0  0
    5.8549  -28.8034   -9.5293 C   0  0  0  0  0  0  0  0  0  0  0  0
    7.1743  -28.7850   -8.7200 C   0  0  0  0  0  0  0  0  0  0  0  0
   11.0182  -25.8044  -11.3440 N   0  0  0  0  0  0  0  0  0  0  0  0
    9.1735  -26.4245   -9.9959 N   0  0  0  0  0  0  0  0  0  0  0  0
    4.4654  -27.6130   -7.9940 O   0  5  0  0  0  0  0  0  0  0  0  0
    6.9274  -25.7888  -10.0284 O   0  0  0  0  0  0  0  0  0  0  0  0
    4.0094  -27.5211  -10.2257 O   0  0  0  0  0  0  0  0  0  0  0  0
    8.8972  -24.9504  -11.7476 O   0  0  0  0  0  0  0  0  0  0  0  0
   13.5896  -26.4146  -12.3450 O   0  0  0  0  0  0  0  0  0  0  0  0
   12.1129  -24.1831  -11.9795 H   0  0  0  0  0  0  0  0  0  0  0  0
   10.8335  -24.6436  -13.1117 H   0  0  0  0  0  0  0  0  0  0  0  0
   11.4966  -27.2502   -9.8513 H   0  0  0  0  0  0  0  0  0  0  0  0
   12.4953  -25.7838   -9.9040 H   0  0  0  0  0  0  0  0  0  0  0  0
   12.1148  -26.6793  -13.7782 H   0  0  0  0  0  0  0  0  0  0  0  0
   13.1270  -25.2405  -13.9539 H   0  0  0  0  0  0  0  0  0  0  0  0
   12.4904  -28.1122  -11.9240 H   0  0  0  0  0  0  0  0  0  0  0  0
   14.6286  -27.0973   -9.9995 H   0  0  0  0  0  0  0  0  0  0  0  0
   14.8286  -28.4066  -11.1798 H   0  0  0  0  0  0  0  0  0  0  0  0
   13.6998  -28.5987   -9.8245 H   0  0  0  0  0  0  0  0  0  0  0  0
    6.2544  -29.1575   -6.7536 H   0  0  0  0  0  0  0  0  0  0  0  0
    6.7092  -30.6269   -7.6252 H   0  0  0  0  0  0  0  0  0  0  0  0
    7.9491  -29.6295   -6.8545 H   0  0  0  0  0  0  0  0  0  0  0  0
    8.4377  -28.9838  -10.5113 H   0  0  0  0  0  0  0  0  0  0  0  0
    9.2095  -29.5517   -9.0213 H   0  0  0  0  0  0  0  0  0  0  0  0
    7.9567  -30.5243   -9.8026 H   0  0  0  0  0  0  0  0  0  0  0  0
    8.5767  -27.4070   -7.7725 H   0  0  0  0  0  0  0  0  0  0  0  0
    6.9249  -26.8613   -7.6893 H   0  0  0  0  0  0  0  0  0  0  0  0
    5.4501  -29.8260   -9.4974 H   0  0  0  0  0  0  0  0  0  0  0  0
    6.0907  -28.6202  -10.5873 H   0  0  0  0  0  0  0  0  0  0  0  0
    9.8413  -26.9722   -9.4660 H   0  0  0  0  0  0  0  0  0  0  0  0
  1 11  1  0  0  0  0
  1 15  1  0  0  0  0
  1 17  2  0  0  0  0
  2 12  1  0  0  0  0
  2 16  1  0  0  0  0
  2 18  2  0  0  0  0
  3 14  1  0  0  0  0
  3 15  1  0  0  0  0
  3 19  2  0  0  0  0
  4  6  1  0  0  0  0
  4 14  1  0  0  0  0
  5  7  1  0  0  0  0
  5 14  1  0  0  0  0
  6 20  1  0  0  0  0
  7  8  1  0  0  0  0
  7 20  1  0  0  0  0
  9 13  1  0  0  0  0
 10 13  1  0  0  0  0
 11 13  1  0  0  0  0
 12 13  1  0  0  0  0
  4 21  1  0  0  0  0
  4 22  1  0  0  0  0
  5 23  1  0  0  0  0
  5 24  1  0  0  0  0
  6 25  1  0  0  0  0
  6 26  1  0  0  0  0
  7 27  1  0  0  0  0
  8 28  1  0  0  0  0
  8 29  1  0  0  0  0
  8 30  1  0  0  0  0
  9 31  1  0  0  0  0
  9 32  1  0  0  0  0
  9 33  1  0  0  0  0
 10 34  1  0  0  0  0
 10 35  1  0  0  0  0
 10 36  1  0  0  0  0
 11 37  1  0  0  0  0
 11 38  1  0  0  0  0
 12 39  1  0  0  0  0
 12 40  1  0  0  0  0
 15 41  1  0  0  0  0
M  CHG  1  16  -1
M  END
> <Hybrid2>
-1.090104341506958

> <Hybrid2>
-1.062660

$$$$
C61833420
  -OEChem-02152218493D

 44 44  0     1  0  0  0  0  0999 V2000
   10.9781  -26.5956  -10.6488 C   0  0  0  0  0  0  0  0  0  0  0  0
   14.9591  -28.2036   -9.6545 C   0  0  0  0  0  0  0  0  0  0  0  0
    8.5872  -26.5335  -10.0195 C   0  0  0  0  0  0  0  0  0  0  0  0
    6.1893  -26.7379   -9.4292 C   0  0  0  0  0  0  0  0  0  0  0  0
    7.4723  -28.8171   -9.6437 C   0  0  0  0  0  0  0  0  0  0  0  0
    5.6476  -27.2337   -8.0908 C   0  0  1  0  0  0  0  0  0  0  0  0
    6.8779  -29.2989   -8.3065 C   0  0  0  0  0  0  0  0  0  0  0  0
    4.2245  -26.7380   -7.8656 C   0  0  0  0  0  0  0  0  0  0  0  0
    6.5818  -30.8014   -8.3969 C   0  0  0  0  0  0  0  0  0  0  0  0
    7.8444  -29.0603   -7.1365 C   0  0  0  0  0  0  0  0  0  0  0  0
   13.3409  -26.5870  -12.8572 C   0  0  0  0  0  0  0  0  0  0  0  0
   12.1096  -27.5850  -10.8710 C   0  0  0  0  0  0  0  0  0  0  0  0
   14.6615  -27.8219  -11.1098 C   0  0  0  0  0  0  0  0  0  0  0  0
   13.4222  -26.9532  -11.3713 C   0  0  1  0  0  0  0  0  0  0  0  0
    7.4869  -27.3505   -9.7115 N   0  0  0  0  0  0  0  0  0  0  0  0
    9.7774  -27.2123  -10.2986 N   0  0  0  0  0  0  0  0  0  0  0  0
   14.6972  -27.3347   -8.7787 O   0  5  0  0  0  0  0  0  0  0  0  0
   11.1535  -25.3839  -10.7591 O   0  0  0  0  0  0  0  0  0  0  0  0
   15.4214  -29.3720   -9.5096 O   0  0  0  0  0  0  0  0  0  0  0  0
    8.5113  -25.3013  -10.0643 O   0  0  0  0  0  0  0  0  0  0  0  0
    5.6117  -28.6640   -8.0655 O   0  0  0  0  0  0  0  0  0  0  0  0
    5.5246  -27.0385  -10.2486 H   0  0  0  0  0  0  0  0  0  0  0  0
    6.2537  -25.6454   -9.4385 H   0  0  0  0  0  0  0  0  0  0  0  0
    8.4618  -29.2540   -9.7777 H   0  0  0  0  0  0  0  0  0  0  0  0
    6.8466  -29.1466  -10.4826 H   0  0  0  0  0  0  0  0  0  0  0  0
    6.2676  -26.8673   -7.2650 H   0  0  0  0  0  0  0  0  0  0  0  0
    3.5773  -27.0848   -8.6711 H   0  0  0  0  0  0  0  0  0  0  0  0
    4.2087  -25.6484   -7.8432 H   0  0  0  0  0  0  0  0  0  0  0  0
    3.8436  -27.1172   -6.9173 H   0  0  0  0  0  0  0  0  0  0  0  0
    6.1623  -31.1453   -7.4556 H   0  0  0  0  0  0  0  0  0  0  0  0
    7.5028  -31.3404   -8.6012 H   0  0  0  0  0  0  0  0  0  0  0  0
    5.8706  -30.9829   -9.1981 H   0  0  0  0  0  0  0  0  0  0  0  0
    7.3892  -29.4124   -6.2158 H   0  0  0  0  0  0  0  0  0  0  0  0
    8.0557  -27.9985   -7.0548 H   0  0  0  0  0  0  0  0  0  0  0  0
    8.7680  -29.6023   -7.3161 H   0  0  0  0  0  0  0  0  0  0  0  0
   13.2147  -27.4873  -13.4683 H   0  0  0  0  0  0  0  0  0  0  0  0
   12.4855  -25.9320  -13.0524 H   0  0  0  0  0  0  0  0  0  0  0  0
   14.2485  -26.0795  -13.1999 H   0  0  0  0  0  0  0  0  0  0  0  0
   12.2821  -28.1533   -9.9499 H   0  0  0  0  0  0  0  0  0  0  0  0
   11.7533  -28.3172  -11.6070 H   0  0  0  0  0  0  0  0  0  0  0  0
   15.5531  -27.3490  -11.5390 H   0  0  0  0  0  0  0  0  0  0  0  0
   14.5397  -28.7769  -11.6393 H   0  0  0  0  0  0  0  0  0  0  0  0
   13.5475  -26.0080  -10.8242 H   0  0  0  0  0  0  0  0  0  0  0  0
    9.7706  -28.2249  -10.2962 H   0  0  0  0  0  0  0  0  0  0  0  0
  1 12  1  0  0  0  0
  1 16  1  0  0  0  0
  1 18  2  0  0  0  0
  2 13  1  0  0  0  0
  2 17  1  0  0  0  0
  2 19  2  0  0  0  0
  3 15  1  0  0  0  0
  3 16  1  0  0  0  0
  3 20  2  0  0  0  0
  4  6  1  0  0  0  0
  4 15  1  0  0  0  0
  5  7  1  0  0  0  0
  5 15  1  0  0  0  0
  6  8  1  0  0  0  0
  6 21  1  0  0  0  0
  7  9  1  0  0  0  0
  7 10  1  0  0  0  0
  7 21  1  0  0  0  0
 11 14  1  0  0  0  0
 12 14  1  0  0  0  0
 13 14  1  0  0  0  0
  4 22  1  0  0  0  0
  4 23  1  0  0  0  0
  5 24  1  0  0  0  0
  5 25  1  0  0  0  0
  6 26  1  0  0  0  0
  8 27  1  0  0  0  0
  8 28  1  0  0  0  0
  8 29  1  0  0  0  0
  9 30  1  0  0  0  0
  9 31  1  0  0  0  0
  9 32  1  0  0  0  0
 10 33  1  0  0  0  0
 10 34  1  0  0  0  0
 10 35  1  0  0  0  0
 11 36  1  0  0  0  0
 11 37  1  0  0  0  0
 11 38  1  0  0  0  0
 12 39  1  0  0  0  0
 12 40  1  0  0  0  0
 13 41  1  0  0  0  0
 13 42  1  0  0  0  0
 14 43  1  0  0  0  0
 16 44  1  0  0  0  0
M  CHG  1  17  -1
M  END
> <Hybrid2>
-1.5362707376480103

> <Hybrid2>
-1.536271

$$$$
C61833420
  -OEChem-02152218493D

 44 44  0     1  0  0  0  0  0999 V2000
   10.2918  -25.8703  -10.8649 C   0  0  0  0  0  0  0  0  0  0  0  0
   14.9728  -27.8861  -10.9978 C   0  0  0  0  0  0  0  0  0  0  0  0
    8.1447  -26.3092   -9.7096 C   0  0  0  0  0  0  0  0  0  0  0  0
    6.0513  -27.0287   -8.5934 C   0  0  0  0  0  0  0  0  0  0  0  0
    7.2498  -28.7145   -9.8898 C   0  0  0  0  0  0  0  0  0  0  0  0
    6.0345  -27.9875   -7.4011 C   0  0  1  0  0  0  0  0  0  0  0  0
    7.2209  -29.6664   -8.6825 C   0  0  0  0  0  0  0  0  0  0  0  0
    4.7508  -27.8267   -6.5966 C   0  0  0  0  0  0  0  0  0  0  0  0
    6.9864  -31.1005   -9.1731 C   0  0  0  0  0  0  0  0  0  0  0  0
    8.5351  -29.6271   -7.8894 C   0  0  0  0  0  0  0  0  0  0  0  0
   12.0600  -28.4574  -10.1544 C   0  0  0  0  0  0  0  0  0  0  0  0
   11.3334  -26.5880  -11.7040 C   0  0  0  0  0  0  0  0  0  0  0  0
   13.7186  -27.3759  -11.7176 C   0  0  0  0  0  0  0  0  0  0  0  0
   12.4766  -27.1502  -10.8408 C   0  0  1  0  0  0  0  0  0  0  0  0
    7.2107  -27.3202   -9.4339 N   0  0  0  0  0  0  0  0  0  0  0  0
    9.2333  -26.7005  -10.4955 N   0  0  0  0  0  0  0  0  0  0  0  0
   15.1581  -27.4539   -9.8268 O   0  5  0  0  0  0  0  0  0  0  0  0
   10.4196  -24.6875  -10.5565 O   0  0  0  0  0  0  0  0  0  0  0  0
   15.6841  -28.6747  -11.6843 O   0  0  0  0  0  0  0  0  0  0  0  0
    8.0341  -25.1610   -9.2682 O   0  0  0  0  0  0  0  0  0  0  0  0
    6.0975  -29.3504   -7.8399 O   0  0  0  0  0  0  0  0  0  0  0  0
    5.1698  -27.1826   -9.2209 H   0  0  0  0  0  0  0  0  0  0  0  0
    6.0522  -25.9931   -8.2540 H   0  0  0  0  0  0  0  0  0  0  0  0
    8.1202  -28.9323  -10.5032 H   0  0  0  0  0  0  0  0  0  0  0  0
    6.3566  -28.8499  -10.5078 H   0  0  0  0  0  0  0  0  0  0  0  0
    6.8788  -27.7798   -6.7308 H   0  0  0  0  0  0  0  0  0  0  0  0
    3.8864  -28.0256   -7.2302 H   0  0  0  0  0  0  0  0  0  0  0  0
    4.6788  -26.8106   -6.2089 H   0  0  0  0  0  0  0  0  0  0  0  0
    4.7450  -28.5260   -5.7604 H   0  0  0  0  0  0  0  0  0  0  0  0
    6.9654  -31.7757   -8.3221 H   0  0  0  0  0  0  0  0  0  0  0  0
    7.7900  -31.3896   -9.8447 H   0  0  0  0  0  0  0  0  0  0  0  0
    6.0376  -31.1526   -9.7000 H   0  0  0  0  0  0  0  0  0  0  0  0
    8.4695  -30.3120   -7.0495 H   0  0  0  0  0  0  0  0  0  0  0  0
    8.7052  -28.6189   -7.5241 H   0  0  0  0  0  0  0  0  0  0  0  0
    9.3552  -29.9228   -8.5367 H   0  0  0  0  0  0  0  0  0  0  0  0
   11.8203  -29.2233  -10.9001 H   0  0  0  0  0  0  0  0  0  0  0  0
   12.8704  -28.8466   -9.5293 H   0  0  0  0  0  0  0  0  0  0  0  0
   11.1748  -28.3206   -9.5249 H   0  0  0  0  0  0  0  0  0  0  0  0
   10.8610  -27.3743  -12.2814 H   0  0  0  0  0  0  0  0  0  0  0  0
   11.7305  -25.8645  -12.4108 H   0  0  0  0  0  0  0  0  0  0  0  0
   13.9696  -26.4641  -12.2622 H   0  0  0  0  0  0  0  0  0  0  0  0
   13.4855  -28.1372  -12.4680 H   0  0  0  0  0  0  0  0  0  0  0  0
   12.7037  -26.4242  -10.0883 H   0  0  0  0  0  0  0  0  0  0  0  0
    9.2447  -27.6430  -10.8716 H   0  0  0  0  0  0  0  0  0  0  0  0
  1 12  1  0  0  0  0
  1 16  1  0  0  0  0
  1 18  2  0  0  0  0
  2 13  1  0  0  0  0
  2 17  1  0  0  0  0
  2 19  2  0  0  0  0
  3 15  1  0  0  0  0
  3 16  1  0  0  0  0
  3 20  2  0  0  0  0
  4  6  1  0  0  0  0
  4 15  1  0  0  0  0
  5  7  1  0  0  0  0
  5 15  1  0  0  0  0
  6  8  1  0  0  0  0
  6 21  1  0  0  0  0
  7  9  1  0  0  0  0
  7 10  1  0  0  0  0
  7 21  1  0  0  0  0
 11 14  1  0  0  0  0
 12 14  1  0  0  0  0
 13 14  1  0  0  0  0
  4 22  1  0  0  0  0
  4 23  1  0  0  0  0
  5 24  1  0  0  0  0
  5 25  1  0  0  0  0
  6 26  1  0  0  0  0
  8 27  1  0  0  0  0
  8 28  1  0  0  0  0
  8 29  1  0  0  0  0
  9 30  1  0  0  0  0
  9 31  1  0  0  0  0
  9 32  1  0  0  0  0
 10 33  1  0  0  0  0
 10 34  1  0  0  0  0
 10 35  1  0  0  0  0
 11 36  1  0  0  0  0
 11 37  1  0  0  0  0
 11 38  1  0  0  0  0
 12 39  1  0  0  0  0
 12 40  1  0  0  0  0
 13 41  1  0  0  0  0
 13 42  1  0  0  0  0
 14 43  1  0  0  0  0
 16 44  1  0  0  0  0
M  CHG  1  17  -1
M  END
> <Hybrid2>
-1.5362707376480103

> <Hybrid2>
-1.101076

$$$$
C62348931
  -OEChem-02152218493D

 35 36  0     0  0  0  0  0  0999 V2000
    9.8890  -25.9261  -10.8931 C   0  0  0  0  0  0  0  0  0  0  0  0
   10.8861  -27.1082   -9.0369 C   0  0  0  0  0  0  0  0  0  0  0  0
    7.5774  -29.3341   -8.2961 C   0  0  0  0  0  0  0  0  0  0  0  0
    7.5166  -30.5309  -10.1574 C   0  0  0  0  0  0  0  0  0  0  0  0
   11.0301  -26.1655  -11.6587 C   0  0  0  0  0  0  0  0  0  0  0  0
   12.0273  -27.3477   -9.8025 C   0  0  0  0  0  0  0  0  0  0  0  0
   12.0992  -26.8764  -11.1134 C   0  0  0  0  0  0  0  0  0  0  0  0
    9.8170  -26.3974   -9.5822 C   0  0  0  0  0  0  0  0  0  0  0  0
    7.4105  -28.4744   -9.3448 C   0  0  0  0  0  0  0  0  0  0  0  0
   11.0832  -25.6581  -13.0420 C   0  0  0  0  0  0  0  0  0  0  0  0
   13.1585  -28.1109   -9.1954 C   0  0  0  0  0  0  0  0  0  0  0  0
   13.3251  -27.1346  -11.9316 C   0  0  0  0  0  0  0  0  0  0  0  0
    7.8112  -31.8234   -8.0734 C   0  0  0  0  0  0  0  0  0  0  0  0
    8.7147  -26.1659   -8.8428 N   0  5  0  0  0  0  0  0  0  0  0  0
    7.6394  -30.5996   -8.8278 N   0  0  0  0  0  0  0  0  0  0  0  0
    7.3766  -29.2420  -10.4840 N   0  3  0  0  0  0  0  0  0  0  0  0
   11.5575  -24.4801  -13.2495 O   0  5  0  0  0  0  0  0  0  0  0  0
   10.6530  -26.4109  -13.9926 O   0  0  0  0  0  0  0  0  0  0  0  0
    6.8466  -26.3326  -10.6171 O   0  0  0  0  0  0  0  0  0  0  0  0
    6.2240  -26.4978   -8.2482 O   0  0  0  0  0  0  0  0  0  0  0  0
    7.2629  -26.6791   -9.2598 S   0  0  0  0  0  0  0  0  0  0  0  0
    9.0583  -25.3706  -11.3256 H   0  0  0  0  0  0  0  0  0  0  0  0
   10.8383  -27.4795   -8.0146 H   0  0  0  0  0  0  0  0  0  0  0  0
    7.6621  -29.2269   -7.2317 H   0  0  0  0  0  0  0  0  0  0  0  0
    7.5275  -31.3596  -10.8465 H   0  0  0  0  0  0  0  0  0  0  0  0
   13.0346  -29.1843   -9.3794 H   0  0  0  0  0  0  0  0  0  0  0  0
   14.1211  -27.7931   -9.6146 H   0  0  0  0  0  0  0  0  0  0  0  0
   13.2118  -27.9455   -8.1122 H   0  0  0  0  0  0  0  0  0  0  0  0
   14.0456  -26.3205  -11.7986 H   0  0  0  0  0  0  0  0  0  0  0  0
   13.8016  -28.0774  -11.6399 H   0  0  0  0  0  0  0  0  0  0  0  0
   13.0778  -27.2153  -12.9964 H   0  0  0  0  0  0  0  0  0  0  0  0
    6.8192  -32.1973   -7.8066 H   0  0  0  0  0  0  0  0  0  0  0  0
    8.3443  -32.5565   -8.6852 H   0  0  0  0  0  0  0  0  0  0  0  0
    8.3968  -31.6142   -7.1738 H   0  0  0  0  0  0  0  0  0  0  0  0
    7.2628  -28.8877  -11.4296 H   0  0  0  0  0  0  0  0  0  0  0  0
  1  5  2  0  0  0  0
  1  8  1  0  0  0  0
  2  6  1  0  0  0  0
  2  8  2  0  0  0  0
  3  9  2  0  0  0  0
  3 15  1  0  0  0  0
  4 15  1  0  0  0  0
  4 16  2  0  0  0  0
  5  7  1  0  0  0  0
  5 10  1  0  0  0  0
  6  7  2  0  0  0  0
  6 11  1  0  0  0  0
  7 12  1  0  0  0  0
  8 14  1  0  0  0  0
  9 16  1  0  0  0  0
  9 21  1  0  0  0  0
 10 17  1  0  0  0  0
 10 18  2  0  0  0  0
 13 15  1  0  0  0  0
 14 21  1  0  0  0  0
 19 21  2  0  0  0  0
 20 21  2  0  0  0  0
  1 22  1  0  0  0  0
  2 23  1  0  0  0  0
  3 24  1  0  0  0  0
  4 25  1  0  0  0  0
 11 26  1  0  0  0  0
 11 27  1  0  0  0  0
 11 28  1  0  0  0  0
 12 29  1  0  0  0  0
 12 30  1  0  0  0  0
 12 31  1  0  0  0  0
 13 32  1  0  0  0  0
 13 33  1  0  0  0  0
 13 34  1  0  0  0  0
 16 35  1  0  0  0  0
M  CHG  3  14  -1  16   1  17  -1
M  END
> <Hybrid2>
-3.9444754123687744

> <Hybrid2>
-3.944475

$$$$
C62348931
  -OEChem-02152218493D

 35 36  0     0  0  0  0  0  0999 V2000
   11.1185  -26.2613  -11.0346 C   0  0  0  0  0  0  0  0  0  0  0  0
   11.4938  -27.2192   -8.8486 C   0  0  0  0  0  0  0  0  0  0  0  0
    7.7853  -28.8426   -8.5998 C   0  0  0  0  0  0  0  0  0  0  0  0
    7.9249  -30.3277  -10.2355 C   0  0  0  0  0  0  0  0  0  0  0  0
   12.3410  -26.7736  -11.4690 C   0  0  0  0  0  0  0  0  0  0  0  0
   12.7163  -27.7317   -9.2830 C   0  0  0  0  0  0  0  0  0  0  0  0
   13.1398  -27.5088  -10.5932 C   0  0  0  0  0  0  0  0  0  0  0  0
   10.6950  -26.4840   -9.7243 C   0  0  0  0  0  0  0  0  0  0  0  0
    7.9866  -28.1646   -9.7688 C   0  0  0  0  0  0  0  0  0  0  0  0
   12.7676  -26.5258  -12.8584 C   0  0  0  0  0  0  0  0  0  0  0  0
   13.5534  -28.5150   -8.3257 C   0  0  0  0  0  0  0  0  0  0  0  0
   14.4520  -28.0594  -11.0557 C   0  0  0  0  0  0  0  0  0  0  0  0
    7.5570  -31.2644   -7.9799 C   0  0  0  0  0  0  0  0  0  0  0  0
    9.5142  -25.9890   -9.3048 N   0  5  0  0  0  0  0  0  0  0  0  0
    7.7508  -30.1789   -8.9183 N   0  0  0  0  0  0  0  0  0  0  0  0
    8.0696  -29.1082  -10.7642 N   0  3  0  0  0  0  0  0  0  0  0  0
   13.4609  -25.4721  -13.1125 O   0  5  0  0  0  0  0  0  0  0  0  0
   12.4312  -27.3717  -13.7676 O   0  0  0  0  0  0  0  0  0  0  0  0
    8.0621  -26.2231  -11.4267 O   0  0  0  0  0  0  0  0  0  0  0  0
    6.9341  -25.8926   -9.2714 O   0  0  0  0  0  0  0  0  0  0  0  0
    8.1196  -26.3780   -9.9747 S   0  0  0  0  0  0  0  0  0  0  0  0
   10.5003  -25.6885  -11.7240 H   0  0  0  0  0  0  0  0  0  0  0  0
   11.1709  -27.3977   -7.8242 H   0  0  0  0  0  0  0  0  0  0  0  0
    7.6592  -28.5634   -7.5714 H   0  0  0  0  0  0  0  0  0  0  0  0
    7.9458  -31.2583  -10.7790 H   0  0  0  0  0  0  0  0  0  0  0  0
   13.2976  -29.5795   -8.3806 H   0  0  0  0  0  0  0  0  0  0  0  0
   14.6215  -28.4002   -8.5475 H   0  0  0  0  0  0  0  0  0  0  0  0
   13.4026  -28.1717   -7.2947 H   0  0  0  0  0  0  0  0  0  0  0  0
   15.2511  -27.3330  -10.8732 H   0  0  0  0  0  0  0  0  0  0  0  0
   14.6956  -28.9899  -10.5303 H   0  0  0  0  0  0  0  0  0  0  0  0
   14.4257  -28.2922  -12.1264 H   0  0  0  0  0  0  0  0  0  0  0  0
    6.4835  -31.4567   -7.9038 H   0  0  0  0  0  0  0  0  0  0  0  0
    8.0803  -32.1546   -8.3398 H   0  0  0  0  0  0  0  0  0  0  0  0
    7.9651  -30.9779   -7.0067 H   0  0  0  0  0  0  0  0  0  0  0  0
    8.2177  -28.9125  -11.7502 H   0  0  0  0  0  0  0  0  0  0  0  0
  1  5  2  0  0  0  0
  1  8  1  0  0  0  0
  2  6  1  0  0  0  0
  2  8  2  0  0  0  0
  3  9  2  0  0  0  0
  3 15  1  0  0  0  0
  4 15  1  0  0  0  0
  4 16  2  0  0  0  0
  5  7  1  0  0  0  0
  5 10  1  0  0  0  0
  6  7  2  0  0  0  0
  6 11  1  0  0  0  0
  7 12  1  0  0  0  0
  8 14  1  0  0  0  0
  9 16  1  0  0  0  0
  9 21  1  0  0  0  0
 10 17  1  0  0  0  0
 10 18  2  0  0  0  0
 13 15  1  0  0  0  0
 14 21  1  0  0  0  0
 19 21  2  0  0  0  0
 20 21  2  0  0  0  0
  1 22  1  0  0  0  0
  2 23  1  0  0  0  0
  3 24  1  0  0  0  0
  4 25  1  0  0  0  0
 11 26  1  0  0  0  0
 11 27  1  0  0  0  0
 11 28  1  0  0  0  0
 12 29  1  0  0  0  0
 12 30  1  0  0  0  0
 12 31  1  0  0  0  0
 13 32  1  0  0  0  0
 13 33  1  0  0  0  0
 13 34  1  0  0  0  0
 16 35  1  0  0  0  0
M  CHG  3  14  -1  16   1  17  -1
M  END
> <Hybrid2>
-3.9444754123687744

> <Hybrid2>
-3.927202

$$$$
C62843792
  -OEChem-02152218493D

 45 45  0     0  0  0  0  0  0999 V2000
   13.0007  -27.2685  -12.3500 C   0  0  0  0  0  0  0  0  0  0  0  0
    6.6611  -26.9716   -9.2385 C   0  0  0  0  0  0  0  0  0  0  0  0
    8.6034  -25.1629  -11.1016 C   0  0  0  0  0  0  0  0  0  0  0  0
   11.1377  -25.9803  -13.4046 C   0  0  0  0  0  0  0  0  0  0  0  0
   12.0647  -25.2901  -11.1433 C   0  0  0  0  0  0  0  0  0  0  0  0
    9.9422  -26.6195  -12.6890 C   0  0  0  0  0  0  0  0  0  0  0  0
   10.8618  -25.9694  -10.4920 C   0  0  0  0  0  0  0  0  0  0  0  0
   12.3835  -25.8817  -12.5194 C   0  0  0  0  0  0  0  0  0  0  0  0
   13.4969  -25.0989  -13.2142 C   0  0  0  0  0  0  0  0  0  0  0  0
    5.1551  -29.6769   -7.2378 C   0  0  0  0  0  0  0  0  0  0  0  0
    5.3263  -29.9038   -9.7408 C   0  0  0  0  0  0  0  0  0  0  0  0
    7.5135  -23.9843   -9.1448 C   0  0  0  0  0  0  0  0  0  0  0  0
    8.0387  -26.3925   -9.0405 C   0  0  0  0  0  0  0  0  0  0  0  0
    5.2905  -28.9410   -8.5629 C   0  0  0  0  0  0  0  0  0  0  0  0
    9.7078  -25.9784  -11.3894 N   0  0  0  0  0  0  0  0  0  0  0  0
    6.5118  -28.1685   -8.5526 N   0  0  0  0  0  0  0  0  0  0  0  0
    8.1517  -25.1393   -9.7733 N   0  0  0  0  0  0  0  0  0  0  0  0
   14.0401  -27.3123  -11.6352 O   0  5  0  0  0  0  0  0  0  0  0  0
   12.3894  -28.1971  -12.9494 O   0  0  0  0  0  0  0  0  0  0  0  0
    5.7941  -26.4343   -9.9226 O   0  0  0  0  0  0  0  0  0  0  0  0
    8.0548  -24.4859  -11.9807 O   0  0  0  0  0  0  0  0  0  0  0  0
   11.3501  -26.5533  -14.3161 H   0  0  0  0  0  0  0  0  0  0  0  0
   10.8459  -24.9735  -13.7326 H   0  0  0  0  0  0  0  0  0  0  0  0
   11.8524  -24.2175  -11.2433 H   0  0  0  0  0  0  0  0  0  0  0  0
   12.9276  -25.3764  -10.4711 H   0  0  0  0  0  0  0  0  0  0  0  0
    9.0755  -26.5174  -13.3449 H   0  0  0  0  0  0  0  0  0  0  0  0
   10.1193  -27.6854  -12.5087 H   0  0  0  0  0  0  0  0  0  0  0  0
   11.0923  -27.0130  -10.2481 H   0  0  0  0  0  0  0  0  0  0  0  0
   10.6120  -25.4671   -9.5513 H   0  0  0  0  0  0  0  0  0  0  0  0
   13.1715  -24.0755  -13.3925 H   0  0  0  0  0  0  0  0  0  0  0  0
   13.7381  -25.5681  -14.1663 H   0  0  0  0  0  0  0  0  0  0  0  0
   14.3858  -25.0869  -12.5861 H   0  0  0  0  0  0  0  0  0  0  0  0
    5.9839  -30.3777   -7.0945 H   0  0  0  0  0  0  0  0  0  0  0  0
    5.1472  -28.9800   -6.3922 H   0  0  0  0  0  0  0  0  0  0  0  0
    4.2198  -30.2463   -7.2033 H   0  0  0  0  0  0  0  0  0  0  0  0
    6.1586  -30.6091   -9.6405 H   0  0  0  0  0  0  0  0  0  0  0  0
    5.4532  -29.3617  -10.6837 H   0  0  0  0  0  0  0  0  0  0  0  0
    4.4035  -30.4910   -9.8062 H   0  0  0  0  0  0  0  0  0  0  0  0
    6.4254  -24.0384   -9.2963 H   0  0  0  0  0  0  0  0  0  0  0  0
    7.7340  -23.9851   -8.0671 H   0  0  0  0  0  0  0  0  0  0  0  0
    7.9011  -23.0598   -9.5977 H   0  0  0  0  0  0  0  0  0  0  0  0
    8.2097  -26.2042   -7.9765 H   0  0  0  0  0  0  0  0  0  0  0  0
    8.7925  -27.0939   -9.4100 H   0  0  0  0  0  0  0  0  0  0  0  0
    4.4519  -28.2467   -8.6847 H   0  0  0  0  0  0  0  0  0  0  0  0
    7.3002  -28.5191   -8.0165 H   0  0  0  0  0  0  0  0  0  0  0  0
  1  8  1  0  0  0  0
  1 18  1  0  0  0  0
  1 19  2  0  0  0  0
  2 13  1  0  0  0  0
  2 16  1  0  0  0  0
  2 20  2  0  0  0  0
  3 15  1  0  0  0  0
  3 17  1  0  0  0  0
  3 21  2  0  0  0  0
  4  6  1  0  0  0  0
  4  8  1  0  0  0  0
  5  7  1  0  0  0  0
  5  8  1  0  0  0  0
  6 15  1  0  0  0  0
  7 15  1  0  0  0  0
  8  9  1  0  0  0  0
 10 14  1  0  0  0  0
 11 14  1  0  0  0  0
 12 17  1  0  0  0  0
 13 17  1  0  0  0  0
 14 16  1  0  0  0  0
  4 22  1  0  0  0  0
  4 23  1  0  0  0  0
  5 24  1  0  0  0  0
  5 25  1  0  0  0  0
  6 26  1  0  0  0  0
  6 27  1  0  0  0  0
  7 28  1  0  0  0  0
  7 29  1  0  0  0  0
  9 30  1  0  0  0  0
  9 31  1  0  0  0  0
  9 32  1  0  0  0  0
 10 33  1  0  0  0  0
 10 34  1  0  0  0  0
 10 35  1  0  0  0  0
 11 36  1  0  0  0  0
 11 37  1  0  0  0  0
 11 38  1  0  0  0  0
 12 39  1  0  0  0  0
 12 40  1  0  0  0  0
 12 41  1  0  0  0  0
 13 42  1  0  0  0  0
 13 43  1  0  0  0  0
 14 44  1  0  0  0  0
 16 45  1  0  0  0  0
M  CHG  1  18  -1
M  END
> <Hybrid2>
-3.322883129119873

> <Hybrid2>
-3.322883

$$$$
C62843792
  -OEChem-02152218493D

 45 45  0     0  0  0  0  0  0999 V2000
   13.6230  -27.3048  -11.5349 C   0  0  0  0  0  0  0  0  0  0  0  0
    6.8521  -27.3469   -9.5069 C   0  0  0  0  0  0  0  0  0  0  0  0
    8.8691  -25.6580  -11.4028 C   0  0  0  0  0  0  0  0  0  0  0  0
   11.8352  -26.5183  -13.0930 C   0  0  0  0  0  0  0  0  0  0  0  0
   12.2787  -25.2913  -10.9142 C   0  0  0  0  0  0  0  0  0  0  0  0
   10.6143  -27.1777  -12.4416 C   0  0  0  0  0  0  0  0  0  0  0  0
   11.0659  -26.0028  -10.3177 C   0  0  0  0  0  0  0  0  0  0  0  0
   12.8923  -26.0776  -12.0764 C   0  0  0  0  0  0  0  0  0  0  0  0
   14.0132  -25.2866  -12.7494 C   0  0  0  0  0  0  0  0  0  0  0  0
    5.3390  -29.8184   -7.2283 C   0  0  0  0  0  0  0  0  0  0  0  0
    5.9600  -30.4822   -9.5777 C   0  0  0  0  0  0  0  0  0  0  0  0
    7.3356  -24.3037   -9.9127 C   0  0  0  0  0  0  0  0  0  0  0  0
    8.1018  -26.5488   -9.2356 C   0  0  0  0  0  0  0  0  0  0  0  0
    5.6156  -29.3316   -8.6434 C   0  0  0  0  0  0  0  0  0  0  0  0
   10.0908  -26.3454  -11.3515 N   0  0  0  0  0  0  0  0  0  0  0  0
    6.7228  -28.4032   -8.6165 N   0  0  0  0  0  0  0  0  0  0  0  0
    8.1973  -25.4518  -10.1883 N   0  0  0  0  0  0  0  0  0  0  0  0
   14.5231  -27.0641  -10.6835 O   0  5  0  0  0  0  0  0  0  0  0  0
   13.2311  -28.4072  -12.0107 O   0  0  0  0  0  0  0  0  0  0  0  0
    6.0601  -27.0774  -10.4061 O   0  0  0  0  0  0  0  0  0  0  0  0
    8.4065  -25.2435  -12.4734 O   0  0  0  0  0  0  0  0  0  0  0  0
   12.2632  -27.2149  -13.8250 H   0  0  0  0  0  0  0  0  0  0  0  0
   11.4928  -25.6432  -13.6618 H   0  0  0  0  0  0  0  0  0  0  0  0
   11.9678  -24.2982  -11.2645 H   0  0  0  0  0  0  0  0  0  0  0  0
   13.0181  -25.1253  -10.1208 H   0  0  0  0  0  0  0  0  0  0  0  0
    9.8666  -27.3257  -13.2231 H   0  0  0  0  0  0  0  0  0  0  0  0
   10.8763  -28.1543  -12.0201 H   0  0  0  0  0  0  0  0  0  0  0  0
   11.3669  -26.9381   -9.8316 H   0  0  0  0  0  0  0  0  0  0  0  0
   10.6044  -25.3747   -9.5483 H   0  0  0  0  0  0  0  0  0  0  0  0
   13.6105  -24.3723  -13.1816 H   0  0  0  0  0  0  0  0  0  0  0  0
   14.4647  -25.8858  -13.5379 H   0  0  0  0  0  0  0  0  0  0  0  0
   14.7747  -25.0296  -12.0152 H   0  0  0  0  0  0  0  0  0  0  0  0
    6.2044  -30.3534   -6.8239 H   0  0  0  0  0  0  0  0  0  0  0  0
    5.1087  -28.9842   -6.5562 H   0  0  0  0  0  0  0  0  0  0  0  0
    4.4814  -30.4999   -7.2126 H   0  0  0  0  0  0  0  0  0  0  0  0
    6.8365  -31.0291   -9.2135 H   0  0  0  0  0  0  0  0  0  0  0  0
    6.1845  -30.1136  -10.5840 H   0  0  0  0  0  0  0  0  0  0  0  0
    5.1336  -31.1979   -9.6531 H   0  0  0  0  0  0  0  0  0  0  0  0
    6.3024  -24.5412  -10.2060 H   0  0  0  0  0  0  0  0  0  0  0  0
    7.3673  -24.0712   -8.8380 H   0  0  0  0  0  0  0  0  0  0  0  0
    7.6888  -23.4342  -10.4865 H   0  0  0  0  0  0  0  0  0  0  0  0
    8.0662  -26.1423   -8.2206 H   0  0  0  0  0  0  0  0  0  0  0  0
    8.9814  -27.1910   -9.3380 H   0  0  0  0  0  0  0  0  0  0  0  0
    4.7378  -28.8003   -9.0271 H   0  0  0  0  0  0  0  0  0  0  0  0
    7.4422  -28.5302   -7.9107 H   0  0  0  0  0  0  0  0  0  0  0  0
  1  8  1  0  0  0  0
  1 18  1  0  0  0  0
  1 19  2  0  0  0  0
  2 13  1  0  0  0  0
  2 16  1  0  0  0  0
  2 20  2  0  0  0  0
  3 15  1  0  0  0  0
  3 17  1  0  0  0  0
  3 21  2  0  0  0  0
  4  6  1  0  0  0  0
  4  8  1  0  0  0  0
  5  7  1  0  0  0  0
  5  8  1  0  0  0  0
  6 15  1  0  0  0  0
  7 15  1  0  0  0  0
  8  9  1  0  0  0  0
 10 14  1  0  0  0  0
 11 14  1  0  0  0  0
 12 17  1  0  0  0  0
 13 17  1  0  0  0  0
 14 16  1  0  0  0  0
  4 22  1  0  0  0  0
  4 23  1  0  0  0  0
  5 24  1  0  0  0  0
  5 25  1  0  0  0  0
  6 26  1  0  0  0  0
  6 27  1  0  0  0  0
  7 28  1  0  0  0  0
  7 29  1  0  0  0  0
  9 30  1  0  0  0  0
  9 31  1  0  0  0  0
  9 32  1  0  0  0  0
 10 33  1  0  0  0  0
 10 34  1  0  0  0  0
 10 35  1  0  0  0  0
 11 36  1  0  0  0  0
 11 37  1  0  0  0  0
 11 38  1  0  0  0  0
 12 39  1  0  0  0  0
 12 40  1  0  0  0  0
 12 41  1  0  0  0  0
 13 42  1  0  0  0  0
 13 43  1  0  0  0  0
 14 44  1  0  0  0  0
 16 45  1  0  0  0  0
M  CHG  1  18  -1
M  END
> <Hybrid2>
-3.322883129119873

> <Hybrid2>
-2.228716

$$$$
C62875296
  -OEChem-02152218493D

 41 41  0     1  0  0  0  0  0999 V2000
    7.5985  -29.8222   -9.0857 C   0  0  0  0  0  0  0  0  0  0  0  0
   12.4983  -27.3288  -10.9153 C   0  0  0  0  0  0  0  0  0  0  0  0
    9.2744  -27.5794  -11.4980 C   0  0  0  0  0  0  0  0  0  0  0  0
    7.1917  -26.7371   -8.6821 C   0  0  0  0  0  0  0  0  0  0  0  0
    6.1228  -27.8322   -8.7501 C   0  0  0  0  0  0  0  0  0  0  0  0
    7.5908  -26.2661  -10.0759 C   0  0  0  0  0  0  0  0  0  0  0  0
    6.9881  -28.4399  -11.0666 C   0  0  0  0  0  0  0  0  0  0  0  0
    6.5001  -28.9648   -9.7123 C   0  0  1  0  0  0  0  0  0  0  0  0
    4.9141  -30.5290   -8.5780 C   0  0  0  0  0  0  0  0  0  0  0  0
   12.0202  -25.1782  -12.0916 C   0  0  0  0  0  0  0  0  0  0  0  0
   14.7122  -28.1300  -10.6730 C   0  0  0  0  0  0  0  0  0  0  0  0
    5.3461  -29.9505   -9.8853 C   0  0  0  0  0  0  0  0  0  0  0  0
   11.5279  -26.5925  -11.8269 C   0  0  2  0  0  0  0  0  0  0  0  0
    8.0175  -27.4085  -10.8941 N   0  0  0  0  0  0  0  0  0  0  0  0
   10.1903  -26.5576  -11.2791 N   0  0  0  0  0  0  0  0  0  0  0  0
    7.9931  -30.7922   -9.7903 O   0  5  0  0  0  0  0  0  0  0  0  0
    7.9721  -29.4489   -7.9384 O   0  0  0  0  0  0  0  0  0  0  0  0
   12.1706  -27.7691   -9.8180 O   0  0  0  0  0  0  0  0  0  0  0  0
    9.5615  -28.5722  -12.1753 O   0  0  0  0  0  0  0  0  0  0  0  0
   13.7400  -27.4399  -11.4653 O   0  0  0  0  0  0  0  0  0  0  0  0
    6.8078  -25.8903   -8.1020 H   0  0  0  0  0  0  0  0  0  0  0  0
    8.0766  -27.1103   -8.1522 H   0  0  0  0  0  0  0  0  0  0  0  0
    5.9421  -28.2173   -7.7387 H   0  0  0  0  0  0  0  0  0  0  0  0
    5.1811  -27.3753   -9.0820 H   0  0  0  0  0  0  0  0  0  0  0  0
    6.7273  -25.8158  -10.5814 H   0  0  0  0  0  0  0  0  0  0  0  0
    8.3471  -25.4842  -10.0086 H   0  0  0  0  0  0  0  0  0  0  0  0
    7.3672  -29.2593  -11.6874 H   0  0  0  0  0  0  0  0  0  0  0  0
    6.1618  -27.9763  -11.6200 H   0  0  0  0  0  0  0  0  0  0  0  0
    5.7589  -31.0454   -8.1073 H   0  0  0  0  0  0  0  0  0  0  0  0
    4.1079  -31.2566   -8.7199 H   0  0  0  0  0  0  0  0  0  0  0  0
    4.5740  -29.7425   -7.8961 H   0  0  0  0  0  0  0  0  0  0  0  0
   12.0876  -24.6022  -11.1626 H   0  0  0  0  0  0  0  0  0  0  0  0
   13.0155  -25.1853  -12.5506 H   0  0  0  0  0  0  0  0  0  0  0  0
   11.3438  -24.6489  -12.7714 H   0  0  0  0  0  0  0  0  0  0  0  0
   15.6647  -28.1595  -11.2079 H   0  0  0  0  0  0  0  0  0  0  0  0
   14.3641  -29.1461  -10.4708 H   0  0  0  0  0  0  0  0  0  0  0  0
   14.8438  -27.5973   -9.7282 H   0  0  0  0  0  0  0  0  0  0  0  0
    4.5040  -29.4355  -10.3550 H   0  0  0  0  0  0  0  0  0  0  0  0
    5.6605  -30.7541  -10.5562 H   0  0  0  0  0  0  0  0  0  0  0  0
   11.4645  -27.1587  -12.7622 H   0  0  0  0  0  0  0  0  0  0  0  0
    9.9120  -25.7630  -10.7179 H   0  0  0  0  0  0  0  0  0  0  0  0
  1  8  1  0  0  0  0
  1 16  1  0  0  0  0
  1 17  2  0  0  0  0
  2 13  1  0  0  0  0
  2 18  2  0  0  0  0
  2 20  1  0  0  0  0
  3 14  1  0  0  0  0
  3 15  1  0  0  0  0
  3 19  2  0  0  0  0
  4  5  1  0  0  0  0
  4  6  1  0  0  0  0
  5  8  1  0  0  0  0
  6 14  1  0  0  0  0
  7  8  1  0  0  0  0
  7 14  1  0  0  0  0
  8 12  1  0  0  0  0
  9 12  1  0  0  0  0
 10 13  1  0  0  0  0
 11 20  1  0  0  0  0
 13 15  1  0  0  0  0
  4 21  1  0  0  0  0
  4 22  1  0  0  0  0
  5 23  1  0  0  0  0
  5 24  1  0  0  0  0
  6 25  1  0  0  0  0
  6 26  1  0  0  0  0
  7 27  1  0  0  0  0
  7 28  1  0  0  0  0
  9 29  1  0  0  0  0
  9 30  1  0  0  0  0
  9 31  1  0  0  0  0
 10 32  1  0  0  0  0
 10 33  1  0  0  0  0
 10 34  1  0  0  0  0
 11 35  1  0  0  0  0
 11 36  1  0  0  0  0
 11 37  1  0  0  0  0
 12 38  1  0  0  0  0
 12 39  1  0  0  0  0
 13 40  1  0  0  0  0
 15 41  1  0  0  0  0
M  CHG  1  16  -1
M  END
> <Hybrid2>
-2.0657684803009033

> <Hybrid2>
-2.065768

$$$$
C62875296
  -OEChem-02152218493D

 41 41  0     1  0  0  0  0  0999 V2000
    8.1344  -29.8957   -8.9147 C   0  0  0  0  0  0  0  0  0  0  0  0
   13.0343  -27.4023  -10.7443 C   0  0  0  0  0  0  0  0  0  0  0  0
    9.8103  -27.6529  -11.3270 C   0  0  0  0  0  0  0  0  0  0  0  0
    7.7277  -26.8106   -8.5111 C   0  0  0  0  0  0  0  0  0  0  0  0
    6.6587  -27.9057   -8.5791 C   0  0  0  0  0  0  0  0  0  0  0  0
    8.1267  -26.3396   -9.9049 C   0  0  0  0  0  0  0  0  0  0  0  0
    7.5240  -28.5134  -10.8955 C   0  0  0  0  0  0  0  0  0  0  0  0
    7.0360  -29.0383   -9.5413 C   0  0  1  0  0  0  0  0  0  0  0  0
    5.4500  -30.6025   -8.4070 C   0  0  0  0  0  0  0  0  0  0  0  0
   12.5561  -25.2517  -11.9206 C   0  0  0  0  0  0  0  0  0  0  0  0
   15.2482  -28.2035  -10.5020 C   0  0  0  0  0  0  0  0  0  0  0  0
    5.8821  -30.0240   -9.7143 C   0  0  0  0  0  0  0  0  0  0  0  0
   12.0639  -26.6660  -11.6558 C   0  0  2  0  0  0  0  0  0  0  0  0
    8.5534  -27.4820  -10.7231 N   0  0  0  0  0  0  0  0  0  0  0  0
   10.7262  -26.6311  -11.1081 N   0  0  0  0  0  0  0  0  0  0  0  0
    8.5291  -30.8657   -9.6193 O   0  5  0  0  0  0  0  0  0  0  0  0
    8.5080  -29.5224   -7.7674 O   0  0  0  0  0  0  0  0  0  0  0  0
   12.7065  -27.8426   -9.6470 O   0  0  0  0  0  0  0  0  0  0  0  0
   10.0974  -28.6457  -12.0043 O   0  0  0  0  0  0  0  0  0  0  0  0
   14.2759  -27.5134  -11.2943 O   0  0  0  0  0  0  0  0  0  0  0  0
    7.3438  -25.9638   -7.9310 H   0  0  0  0  0  0  0  0  0  0  0  0
    8.6125  -27.1838   -7.9812 H   0  0  0  0  0  0  0  0  0  0  0  0
    6.4781  -28.2908   -7.5677 H   0  0  0  0  0  0  0  0  0  0  0  0
    5.7170  -27.4488   -8.9110 H   0  0  0  0  0  0  0  0  0  0  0  0
    7.2633  -25.8893  -10.4104 H   0  0  0  0  0  0  0  0  0  0  0  0
    8.8830  -25.5577   -9.8375 H   0  0  0  0  0  0  0  0  0  0  0  0
    7.9031  -29.3328  -11.5164 H   0  0  0  0  0  0  0  0  0  0  0  0
    6.6977  -28.0498  -11.4490 H   0  0  0  0  0  0  0  0  0  0  0  0
    6.2948  -31.1189   -7.9363 H   0  0  0  0  0  0  0  0  0  0  0  0
    4.6438  -31.3301   -8.5489 H   0  0  0  0  0  0  0  0  0  0  0  0
    5.1099  -29.8160   -7.7250 H   0  0  0  0  0  0  0  0  0  0  0  0
   12.6235  -24.6757  -10.9916 H   0  0  0  0  0  0  0  0  0  0  0  0
   13.5514  -25.2588  -12.3796 H   0  0  0  0  0  0  0  0  0  0  0  0
   11.8797  -24.7224  -12.6004 H   0  0  0  0  0  0  0  0  0  0  0  0
   16.2006  -28.2330  -11.0369 H   0  0  0  0  0  0  0  0  0  0  0  0
   14.9000  -29.2196  -10.2998 H   0  0  0  0  0  0  0  0  0  0  0  0
   15.3798  -27.6708   -9.5572 H   0  0  0  0  0  0  0  0  0  0  0  0
    5.0400  -29.5090  -10.1840 H   0  0  0  0  0  0  0  0  0  0  0  0
    6.1964  -30.8276  -10.3852 H   0  0  0  0  0  0  0  0  0  0  0  0
   12.0004  -27.2322  -12.5912 H   0  0  0  0  0  0  0  0  0  0  0  0
   10.4479  -25.8365  -10.5469 H   0  0  0  0  0  0  0  0  0  0  0  0
  1  8  1  0  0  0  0
  1 16  1  0  0  0  0
  1 17  2  0  0  0  0
  2 13  1  0  0  0  0
  2 18  2  0  0  0  0
  2 20  1  0  0  0  0
  3 14  1  0  0  0  0
  3 15  1  0  0  0  0
  3 19  2  0  0  0  0
  4  5  1  0  0  0  0
  4  6  1  0  0  0  0
  5  8  1  0  0  0  0
  6 14  1  0  0  0  0
  7  8  1  0  0  0  0
  7 14  1  0  0  0  0
  8 12  1  0  0  0  0
  9 12  1  0  0  0  0
 10 13  1  0  0  0  0
 11 20  1  0  0  0  0
 13 15  1  0  0  0  0
  4 21  1  0  0  0  0
  4 22  1  0  0  0  0
  5 23  1  0  0  0  0
  5 24  1  0  0  0  0
  6 25  1  0  0  0  0
  6 26  1  0  0  0  0
  7 27  1  0  0  0  0
  7 28  1  0  0  0  0
  9 29  1  0  0  0  0
  9 30  1  0  0  0  0
  9 31  1  0  0  0  0
 10 32  1  0  0  0  0
 10 33  1  0  0  0  0
 10 34  1  0  0  0  0
 11 35  1  0  0  0  0
 11 36  1  0  0  0  0
 11 37  1  0  0  0  0
 12 38  1  0  0  0  0
 12 39  1  0  0  0  0
 13 40  1  0  0  0  0
 15 41  1  0  0  0  0
M  CHG  1  16  -1
M  END
> <Hybrid2>
-2.0657684803009033

> <Hybrid2>
-1.455521

$$$$
C62876091
  -OEChem-02152218493D

 38 39  0     1  0  0  0  0  0999 V2000
   12.5058  -27.9074  -11.7467 C   0  0  0  0  0  0  0  0  0  0  0  0
   11.6008  -26.9150  -12.1611 C   0  0  0  0  0  0  0  0  0  0  0  0
   13.6868  -27.2298  -11.5982 C   0  0  0  0  0  0  0  0  0  0  0  0
    5.2017  -26.3787   -9.5665 C   0  0  0  0  0  0  0  0  0  0  0  0
    8.7762  -26.7310  -10.4369 C   0  0  0  0  0  0  0  0  0  0  0  0
    6.4813  -29.2213   -9.2089 C   0  0  0  0  0  0  0  0  0  0  0  0
    5.6657  -28.4155   -8.1931 C   0  0  0  0  0  0  0  0  0  0  0  0
    7.9501  -28.8137   -9.1873 C   0  0  0  0  0  0  0  0  0  0  0  0
    7.3897  -26.5517   -8.3876 C   0  0  0  0  0  0  0  0  0  0  0  0
    5.9007  -26.9052   -8.3141 C   0  0  1  0  0  0  0  0  0  0  0  0
   15.0421  -27.6256  -11.1960 C   0  0  0  0  0  0  0  0  0  0  0  0
    5.2079  -26.1458   -7.1843 C   0  0  0  0  0  0  0  0  0  0  0  0
   10.1425  -27.0749  -12.4803 C   0  0  0  0  0  0  0  0  0  0  0  0
   12.1766  -25.7137  -12.2619 N   0  0  0  0  0  0  0  0  0  0  0  0
    8.0773  -27.3657   -9.3965 N   0  0  0  0  0  0  0  0  0  0  0  0
    9.3932  -27.5771  -11.3502 N   0  0  0  0  0  0  0  0  0  0  0  0
    5.3257  -25.1396   -9.7724 O   0  5  0  0  0  0  0  0  0  0  0  0
    4.5871  -27.2544  -10.2377 O   0  0  0  0  0  0  0  0  0  0  0  0
    8.8390  -25.5019  -10.5478 O   0  0  0  0  0  0  0  0  0  0  0  0
   13.5032  -25.9196  -11.9028 O   0  0  0  0  0  0  0  0  0  0  0  0
   12.3272  -28.9597  -11.5807 H   0  0  0  0  0  0  0  0  0  0  0  0
    6.3913  -30.2896   -8.9815 H   0  0  0  0  0  0  0  0  0  0  0  0
    6.0735  -29.0754  -10.2165 H   0  0  0  0  0  0  0  0  0  0  0  0
    4.6031  -28.6607   -8.3143 H   0  0  0  0  0  0  0  0  0  0  0  0
    5.9480  -28.7451   -7.1844 H   0  0  0  0  0  0  0  0  0  0  0  0
    8.3864  -29.0342   -8.2050 H   0  0  0  0  0  0  0  0  0  0  0  0
    8.5158  -29.4001   -9.9113 H   0  0  0  0  0  0  0  0  0  0  0  0
    7.5261  -25.4851   -8.5982 H   0  0  0  0  0  0  0  0  0  0  0  0
    7.8808  -26.7526   -7.4271 H   0  0  0  0  0  0  0  0  0  0  0  0
   15.6510  -27.9289  -12.0670 H   0  0  0  0  0  0  0  0  0  0  0  0
   15.5855  -26.8091  -10.6838 H   0  0  0  0  0  0  0  0  0  0  0  0
   15.0403  -28.4737  -10.4852 H   0  0  0  0  0  0  0  0  0  0  0  0
    5.6302  -26.4438   -6.2261 H   0  0  0  0  0  0  0  0  0  0  0  0
    4.1422  -26.3687   -7.1892 H   0  0  0  0  0  0  0  0  0  0  0  0
    5.3491  -25.0746   -7.3189 H   0  0  0  0  0  0  0  0  0  0  0  0
    9.7045  -26.1153  -12.7758 H   0  0  0  0  0  0  0  0  0  0  0  0
    9.9966  -27.7696  -13.3141 H   0  0  0  0  0  0  0  0  0  0  0  0
    9.3156  -28.5774  -11.2202 H   0  0  0  0  0  0  0  0  0  0  0  0
  1  2  1  0  0  0  0
  1  3  2  0  0  0  0
  2 13  1  0  0  0  0
  2 14  2  0  0  0  0
  3 11  1  0  0  0  0
  3 20  1  0  0  0  0
  4 10  1  0  0  0  0
  4 17  1  0  0  0  0
  4 18  2  0  0  0  0
  5 15  1  0  0  0  0
  5 16  1  0  0  0  0
  5 19  2  0  0  0  0
  6  7  1  0  0  0  0
  6  8  1  0  0  0  0
  7 10  1  0  0  0  0
  8 15  1  0  0  0  0
  9 10  1  0  0  0  0
  9 15  1  0  0  0  0
 10 12  1  0  0  0  0
 13 16  1  0  0  0  0
 14 20  1  0  0  0  0
  1 21  1  0  0  0  0
  6 22  1  0  0  0  0
  6 23  1  0  0  0  0
  7 24  1  0  0  0  0
  7 25  1  0  0  0  0
  8 26  1  0  0  0  0
  8 27  1  0  0  0  0
  9 28  1  0  0  0  0
  9 29  1  0  0  0  0
 11 30  1  0  0  0  0
 11 31  1  0  0  0  0
 11 32  1  0  0  0  0
 12 33  1  0  0  0  0
 12 34  1  0  0  0  0
 12 35  1  0  0  0  0
 13 36  1  0  0  0  0
 13 37  1  0  0  0  0
 16 38  1  0  0  0  0
M  CHG  1  17  -1
M  END
> <Hybrid2>
-3.561519145965576

> <Hybrid2>
-3.561519

$$$$
C62876091
  -OEChem-02152218493D

 38 39  0     1  0  0  0  0  0999 V2000
   12.8223  -28.1344  -11.2849 C   0  0  0  0  0  0  0  0  0  0  0  0
   12.1576  -27.2359  -12.1373 C   0  0  0  0  0  0  0  0  0  0  0  0
   14.1014  -27.6475  -11.2320 C   0  0  0  0  0  0  0  0  0  0  0  0
    5.8365  -24.7635  -10.7590 C   0  0  0  0  0  0  0  0  0  0  0  0
    9.3204  -25.9781  -10.9739 C   0  0  0  0  0  0  0  0  0  0  0  0
    6.5085  -27.4356   -9.2577 C   0  0  0  0  0  0  0  0  0  0  0  0
    5.8040  -26.1917   -8.7073 C   0  0  0  0  0  0  0  0  0  0  0  0
    8.0243  -27.2887   -9.1895 C   0  0  0  0  0  0  0  0  0  0  0  0
    7.8689  -24.8333   -9.3196 C   0  0  0  0  0  0  0  0  0  0  0  0
    6.3378  -24.8922   -9.3216 C   0  0  1  0  0  0  0  0  0  0  0  0
   15.3244  -28.0765  -10.5425 C   0  0  0  0  0  0  0  0  0  0  0  0
    5.7372  -23.6681   -8.6332 C   0  0  0  0  0  0  0  0  0  0  0  0
   10.7195  -27.2682  -12.5672 C   0  0  0  0  0  0  0  0  0  0  0  0
   12.9630  -26.2659  -12.5792 N   0  0  0  0  0  0  0  0  0  0  0  0
    8.4460  -26.0618   -9.8774 N   0  0  0  0  0  0  0  0  0  0  0  0
    9.8161  -27.1892  -11.4410 N   0  0  0  0  0  0  0  0  0  0  0  0
    6.2139  -23.7259  -11.3707 O   0  5  0  0  0  0  0  0  0  0  0  0
    5.1059  -25.7157  -11.1525 O   0  0  0  0  0  0  0  0  0  0  0  0
    9.6299  -24.9048  -11.5020 O   0  0  0  0  0  0  0  0  0  0  0  0
   14.1980  -26.5325  -12.0003 O   0  0  0  0  0  0  0  0  0  0  0  0
   12.4306  -29.0072  -10.7833 H   0  0  0  0  0  0  0  0  0  0  0  0
    6.1965  -28.3144   -8.6819 H   0  0  0  0  0  0  0  0  0  0  0  0
    6.2020  -27.6107  -10.2961 H   0  0  0  0  0  0  0  0  0  0  0  0
    4.7238  -26.2917   -8.8722 H   0  0  0  0  0  0  0  0  0  0  0  0
    5.9517  -26.1642   -7.6196 H   0  0  0  0  0  0  0  0  0  0  0  0
    8.3457  -27.1957   -8.1445 H   0  0  0  0  0  0  0  0  0  0  0  0
    8.5088  -28.1838   -9.5794 H   0  0  0  0  0  0  0  0  0  0  0  0
    8.2249  -23.9572   -9.8731 H   0  0  0  0  0  0  0  0  0  0  0  0
    8.2491  -24.7392   -8.2946 H   0  0  0  0  0  0  0  0  0  0  0  0
   15.9161  -28.7740  -11.1629 H   0  0  0  0  0  0  0  0  0  0  0  0
   15.9838  -27.2261  -10.2849 H   0  0  0  0  0  0  0  0  0  0  0  0
   15.1113  -28.5886   -9.5850 H   0  0  0  0  0  0  0  0  0  0  0  0
    6.0313  -23.6527   -7.5851 H   0  0  0  0  0  0  0  0  0  0  0  0
    4.6510  -23.7040   -8.6984 H   0  0  0  0  0  0  0  0  0  0  0  0
    6.0940  -22.7604   -9.1173 H   0  0  0  0  0  0  0  0  0  0  0  0
   10.4978  -26.4300  -13.2368 H   0  0  0  0  0  0  0  0  0  0  0  0
   10.4933  -28.1898  -13.1138 H   0  0  0  0  0  0  0  0  0  0  0  0
    9.5358  -28.0439  -10.9778 H   0  0  0  0  0  0  0  0  0  0  0  0
  1  2  1  0  0  0  0
  1  3  2  0  0  0  0
  2 13  1  0  0  0  0
  2 14  2  0  0  0  0
  3 11  1  0  0  0  0
  3 20  1  0  0  0  0
  4 10  1  0  0  0  0
  4 17  1  0  0  0  0
  4 18  2  0  0  0  0
  5 15  1  0  0  0  0
  5 16  1  0  0  0  0
  5 19  2  0  0  0  0
  6  7  1  0  0  0  0
  6  8  1  0  0  0  0
  7 10  1  0  0  0  0
  8 15  1  0  0  0  0
  9 10  1  0  0  0  0
  9 15  1  0  0  0  0
 10 12  1  0  0  0  0
 13 16  1  0  0  0  0
 14 20  1  0  0  0  0
  1 21  1  0  0  0  0
  6 22  1  0  0  0  0
  6 23  1  0  0  0  0
  7 24  1  0  0  0  0
  7 25  1  0  0  0  0
  8 26  1  0  0  0  0
  8 27  1  0  0  0  0
  9 28  1  0  0  0  0
  9 29  1  0  0  0  0
 11 30  1  0  0  0  0
 11 31  1  0  0  0  0
 11 32  1  0  0  0  0
 12 33  1  0  0  0  0
 12 34  1  0  0  0  0
 12 35  1  0  0  0  0
 13 36  1  0  0  0  0
 13 37  1  0  0  0  0
 16 38  1  0  0  0  0
M  CHG  1  17  -1
M  END
> <Hybrid2>
-3.561519145965576

> <Hybrid2>
-2.131845

$$$$
C62925291
  -OEChem-02152218493D

 42 43  0     1  0  0  0  0  0999 V2000
    5.1611  -27.8071   -8.4387 C   0  0  0  0  0  0  0  0  0  0  0  0
    5.8848  -29.8834   -8.4143 C   0  0  0  0  0  0  0  0  0  0  0  0
    6.2998  -28.6004   -8.6754 C   0  0  0  0  0  0  0  0  0  0  0  0
   11.4762  -27.3890  -12.0701 C   0  0  0  0  0  0  0  0  0  0  0  0
    8.0503  -26.9042   -9.3379 C   0  0  0  0  0  0  0  0  0  0  0  0
   11.5299  -25.9032  -10.0968 C   0  0  0  0  0  0  0  0  0  0  0  0
   10.0434  -25.5795  -10.0313 C   0  0  0  0  0  0  0  0  0  0  0  0
   10.3124  -27.9724   -9.9201 C   0  0  0  0  0  0  0  0  0  0  0  0
   11.5608  -27.3625  -10.5464 C   0  0  1  0  0  0  0  0  0  0  0  0
   15.3538  -28.1219  -10.4228 C   0  0  0  0  0  0  0  0  0  0  0  0
    3.2170  -31.6585   -8.8867 C   0  0  0  0  0  0  0  0  0  0  0  0
   12.8458  -28.0833  -10.1778 C   0  0  0  0  0  0  0  0  0  0  0  0
   14.0647  -27.4174  -10.8144 C   0  0  0  0  0  0  0  0  0  0  0  0
    3.7037  -30.8744   -7.6801 C   0  0  0  0  0  0  0  0  0  0  0  0
    4.1022  -28.5261   -8.0568 N   0  0  0  0  0  0  0  0  0  0  0  0
    4.5738  -29.7845   -8.0516 N   0  0  0  0  0  0  0  0  0  0  0  0
    9.3928  -26.8474   -9.7342 N   0  0  0  0  0  0  0  0  0  0  0  0
    7.5941  -28.1992   -9.0886 N   0  0  0  0  0  0  0  0  0  0  0  0
   11.4912  -28.5386  -12.5909 O   0  5  0  0  0  0  0  0  0  0  0  0
   11.4017  -26.2526  -12.6162 O   0  0  0  0  0  0  0  0  0  0  0  0
    7.3728  -25.8807   -9.2271 O   0  0  0  0  0  0  0  0  0  0  0  0
    5.0563  -26.7351   -8.5273 H   0  0  0  0  0  0  0  0  0  0  0  0
    6.3973  -30.8353   -8.4547 H   0  0  0  0  0  0  0  0  0  0  0  0
   12.0559  -25.2236  -10.7757 H   0  0  0  0  0  0  0  0  0  0  0  0
   11.9719  -25.7979   -9.0982 H   0  0  0  0  0  0  0  0  0  0  0  0
    9.8033  -24.8312   -9.2700 H   0  0  0  0  0  0  0  0  0  0  0  0
    9.6634  -25.2296  -10.9974 H   0  0  0  0  0  0  0  0  0  0  0  0
    9.8391  -28.7367  -10.5454 H   0  0  0  0  0  0  0  0  0  0  0  0
   10.5094  -28.3984   -8.9298 H   0  0  0  0  0  0  0  0  0  0  0  0
   15.4823  -28.1289   -9.3357 H   0  0  0  0  0  0  0  0  0  0  0  0
   16.2148  -27.6095  -10.8637 H   0  0  0  0  0  0  0  0  0  0  0  0
   15.3577  -29.1580  -10.7761 H   0  0  0  0  0  0  0  0  0  0  0  0
    2.6655  -31.0151   -9.5806 H   0  0  0  0  0  0  0  0  0  0  0  0
    2.5521  -32.4680   -8.5702 H   0  0  0  0  0  0  0  0  0  0  0  0
    4.0553  -32.1000   -9.4358 H   0  0  0  0  0  0  0  0  0  0  0  0
   12.9547  -28.0921   -9.0866 H   0  0  0  0  0  0  0  0  0  0  0  0
   12.7802  -29.1282  -10.5044 H   0  0  0  0  0  0  0  0  0  0  0  0
   13.9666  -27.4279  -11.9064 H   0  0  0  0  0  0  0  0  0  0  0  0
   14.1198  -26.3675  -10.5040 H   0  0  0  0  0  0  0  0  0  0  0  0
    4.2539  -31.5262   -6.9922 H   0  0  0  0  0  0  0  0  0  0  0  0
    2.8570  -30.4558   -7.1243 H   0  0  0  0  0  0  0  0  0  0  0  0
    8.2646  -29.0141   -9.1894 H   0  0  0  0  0  0  0  0  0  0  0  0
  1  3  1  0  0  0  0
  1 15  2  0  0  0  0
  2  3  2  0  0  0  0
  2 16  1  0  0  0  0
  3 18  1  0  0  0  0
  4  9  1  0  0  0  0
  4 19  1  0  0  0  0
  4 20  2  0  0  0  0
  5 17  1  0  0  0  0
  5 18  1  0  0  0  0
  5 21  2  0  0  0  0
  6  7  1  0  0  0  0
  6  9  1  0  0  0  0
  7 17  1  0  0  0  0
  8  9  1  0  0  0  0
  8 17  1  0  0  0  0
  9 12  1  0  0  0  0
 10 13  1  0  0  0  0
 11 14  1  0  0  0  0
 12 13  1  0  0  0  0
 14 16  1  0  0  0  0
 15 16  1  0  0  0  0
  1 22  1  0  0  0  0
  2 23  1  0  0  0  0
  6 24  1  0  0  0  0
  6 25  1  0  0  0  0
  7 26  1  0  0  0  0
  7 27  1  0  0  0  0
  8 28  1  0  0  0  0
  8 29  1  0  0  0  0
 10 30  1  0  0  0  0
 10 31  1  0  0  0  0
 10 32  1  0  0  0  0
 11 33  1  0  0  0  0
 11 34  1  0  0  0  0
 11 35  1  0  0  0  0
 12 36  1  0  0  0  0
 12 37  1  0  0  0  0
 13 38  1  0  0  0  0
 13 39  1  0  0  0  0
 14 40  1  0  0  0  0
 14 41  1  0  0  0  0
 18 42  1  0  0  0  0
M  CHG  1  19  -1
M  END
> <Hybrid2>
-3.551368474960327

> <Hybrid2>
-3.551368

$$$$
C62925291
  -OEChem-02152218493D

 42 43  0     1  0  0  0  0  0999 V2000
    7.0013  -30.4515   -8.3347 C   0  0  0  0  0  0  0  0  0  0  0  0
    5.5904  -28.8928   -8.9788 C   0  0  0  0  0  0  0  0  0  0  0  0
    6.9209  -29.2298   -9.0296 C   0  0  0  0  0  0  0  0  0  0  0  0
   11.3063  -27.1471  -13.0566 C   0  0  0  0  0  0  0  0  0  0  0  0
    7.8543  -27.2673  -10.3169 C   0  0  0  0  0  0  0  0  0  0  0  0
   10.6524  -25.2365  -11.6331 C   0  0  0  0  0  0  0  0  0  0  0  0
    9.1623  -25.5365  -11.5424 C   0  0  0  0  0  0  0  0  0  0  0  0
   10.3807  -27.4556  -10.7404 C   0  0  0  0  0  0  0  0  0  0  0  0
   11.2991  -26.6201  -11.6242 C   0  0  1  0  0  0  0  0  0  0  0  0
   14.8046  -28.0007  -10.7389 C   0  0  0  0  0  0  0  0  0  0  0  0
    3.1769  -29.0694   -6.8258 C   0  0  0  0  0  0  0  0  0  0  0  0
   12.7470  -26.6095  -11.1662 C   0  0  0  0  0  0  0  0  0  0  0  0
   13.3468  -28.0147  -11.1703 C   0  0  0  0  0  0  0  0  0  0  0  0
    3.5723  -29.9846   -7.9719 C   0  0  0  0  0  0  0  0  0  0  0  0
    5.8162  -30.8626   -7.8758 N   0  0  0  0  0  0  0  0  0  0  0  0
    4.9786  -29.8938   -8.2832 N   0  0  0  0  0  0  0  0  0  0  0  0
    9.0736  -26.7995  -10.8241 N   0  0  0  0  0  0  0  0  0  0  0  0
    7.9562  -28.4900   -9.6522 N   0  0  0  0  0  0  0  0  0  0  0  0
   10.2861  -27.8102  -13.3922 O   0  5  0  0  0  0  0  0  0  0  0  0
   12.3363  -26.8508  -13.7248 O   0  0  0  0  0  0  0  0  0  0  0  0
    6.8130  -26.6243  -10.4619 O   0  0  0  0  0  0  0  0  0  0  0  0
    7.8725  -31.0616   -8.1426 H   0  0  0  0  0  0  0  0  0  0  0  0
    5.0397  -28.0469   -9.3680 H   0  0  0  0  0  0  0  0  0  0  0  0
   10.8865  -24.6484  -12.5268 H   0  0  0  0  0  0  0  0  0  0  0  0
   10.9640  -24.6596  -10.7535 H   0  0  0  0  0  0  0  0  0  0  0  0
    8.6006  -24.7537  -11.0238 H   0  0  0  0  0  0  0  0  0  0  0  0
    8.7194  -25.6862  -12.5332 H   0  0  0  0  0  0  0  0  0  0  0  0
   10.2921  -28.4977  -11.0646 H   0  0  0  0  0  0  0  0  0  0  0  0
   10.6867  -27.4377   -9.6881 H   0  0  0  0  0  0  0  0  0  0  0  0
   15.4017  -27.3595  -11.3951 H   0  0  0  0  0  0  0  0  0  0  0  0
   15.2218  -29.0119  -10.7800 H   0  0  0  0  0  0  0  0  0  0  0  0
   14.9066  -27.6328   -9.7129 H   0  0  0  0  0  0  0  0  0  0  0  0
    3.7347  -29.3120   -5.9151 H   0  0  0  0  0  0  0  0  0  0  0  0
    2.1090  -29.1720   -6.6095 H   0  0  0  0  0  0  0  0  0  0  0  0
    3.3767  -28.0208   -7.0701 H   0  0  0  0  0  0  0  0  0  0  0  0
   13.3296  -25.9548  -11.8254 H   0  0  0  0  0  0  0  0  0  0  0  0
   12.8034  -26.1844  -10.1567 H   0  0  0  0  0  0  0  0  0  0  0  0
   12.7780  -28.6642  -10.4945 H   0  0  0  0  0  0  0  0  0  0  0  0
   13.2730  -28.4479  -12.1747 H   0  0  0  0  0  0  0  0  0  0  0  0
    3.0092  -29.7343   -8.8781 H   0  0  0  0  0  0  0  0  0  0  0  0
    3.3475  -31.0290   -7.7275 H   0  0  0  0  0  0  0  0  0  0  0  0
    8.9053  -28.9530   -9.5598 H   0  0  0  0  0  0  0  0  0  0  0  0
  1  3  1  0  0  0  0
  1 15  2  0  0  0  0
  2  3  2  0  0  0  0
  2 16  1  0  0  0  0
  3 18  1  0  0  0  0
  4  9  1  0  0  0  0
  4 19  1  0  0  0  0
  4 20  2  0  0  0  0
  5 17  1  0  0  0  0
  5 18  1  0  0  0  0
  5 21  2  0  0  0  0
  6  7  1  0  0  0  0
  6  9  1  0  0  0  0
  7 17  1  0  0  0  0
  8  9  1  0  0  0  0
  8 17  1  0  0  0  0
  9 12  1  0  0  0  0
 10 13  1  0  0  0  0
 11 14  1  0  0  0  0
 12 13  1  0  0  0  0
 14 16  1  0  0  0  0
 15 16  1  0  0  0  0
  1 22  1  0  0  0  0
  2 23  1  0  0  0  0
  6 24  1  0  0  0  0
  6 25  1  0  0  0  0
  7 26  1  0  0  0  0
  7 27  1  0  0  0  0
  8 28  1  0  0  0  0
  8 29  1  0  0  0  0
 10 30  1  0  0  0  0
 10 31  1  0  0  0  0
 10 32  1  0  0  0  0
 11 33  1  0  0  0  0
 11 34  1  0  0  0  0
 11 35  1  0  0  0  0
 12 36  1  0  0  0  0
 12 37  1  0  0  0  0
 13 38  1  0  0  0  0
 13 39  1  0  0  0  0
 14 40  1  0  0  0  0
 14 41  1  0  0  0  0
 18 42  1  0  0  0  0
M  CHG  1  19  -1
M  END
> <Hybrid2>
-3.551368474960327

> <Hybrid2>
-3.390759

$$$$
C62946751
  -OEChem-02152218493D

 37 38  0     0  0  0  0  0  0999 V2000
    5.8213  -27.8669   -9.2044 C   0  0  0  0  0  0  0  0  0  0  0  0
    3.6272  -27.3383   -8.4540 C   0  0  0  0  0  0  0  0  0  0  0  0
    4.9150  -25.6748   -9.3773 C   0  0  0  0  0  0  0  0  0  0  0  0
    4.6276  -28.2817   -8.6244 C   0  0  0  0  0  0  0  0  0  0  0  0
    5.9758  -26.5402   -9.5908 C   0  0  0  0  0  0  0  0  0  0  0  0
   11.5846  -26.8643  -10.4480 C   0  0  0  0  0  0  0  0  0  0  0  0
    4.4333  -29.6761   -8.2057 C   0  0  0  0  0  0  0  0  0  0  0  0
    8.3216  -26.8336  -10.4601 C   0  0  0  0  0  0  0  0  0  0  0  0
   12.8206  -27.6319  -10.8749 C   0  0  0  0  0  0  0  0  0  0  0  0
   13.5823  -26.9163  -11.9853 C   0  0  0  0  0  0  0  0  0  0  0  0
   13.0573  -27.2301  -13.3842 C   0  0  0  0  0  0  0  0  0  0  0  0
   11.6245  -26.7681  -13.6412 C   0  0  0  0  0  0  0  0  0  0  0  0
   10.6072  -27.4089  -12.7032 C   0  0  0  0  0  0  0  0  0  0  0  0
    9.3834  -25.9599  -11.0995 C   0  0  0  0  0  0  0  0  0  0  0  0
    3.7405  -26.0410   -8.8168 N   0  0  0  0  0  0  0  0  0  0  0  0
   10.5686  -26.7546  -11.3941 N   0  0  0  0  0  0  0  0  0  0  0  0
    7.1787  -26.0880  -10.1838 N   0  0  0  0  0  0  0  0  0  0  0  0
    3.3097  -30.0152   -7.6719 O   0  5  0  0  0  0  0  0  0  0  0  0
   11.5348  -26.3745   -9.3169 O   0  0  0  0  0  0  0  0  0  0  0  0
    5.3922  -30.5193   -8.3841 O   0  0  0  0  0  0  0  0  0  0  0  0
    8.4983  -28.0294  -10.2500 O   0  0  0  0  0  0  0  0  0  0  0  0
    6.6305  -28.5780   -9.3548 H   0  0  0  0  0  0  0  0  0  0  0  0
    2.6736  -27.6024   -8.0068 H   0  0  0  0  0  0  0  0  0  0  0  0
    4.9757  -24.6274   -9.6577 H   0  0  0  0  0  0  0  0  0  0  0  0
   13.4718  -27.7003   -9.9941 H   0  0  0  0  0  0  0  0  0  0  0  0
   12.5584  -28.6601  -11.1437 H   0  0  0  0  0  0  0  0  0  0  0  0
   13.5740  -25.8318  -11.8217 H   0  0  0  0  0  0  0  0  0  0  0  0
   14.6314  -27.2348  -11.9445 H   0  0  0  0  0  0  0  0  0  0  0  0
   13.7135  -26.7478  -14.1191 H   0  0  0  0  0  0  0  0  0  0  0  0
   13.1307  -28.3094  -13.5675 H   0  0  0  0  0  0  0  0  0  0  0  0
   11.5601  -25.6745  -13.5874 H   0  0  0  0  0  0  0  0  0  0  0  0
   11.3639  -27.0411  -14.6714 H   0  0  0  0  0  0  0  0  0  0  0  0
    9.6086  -27.3395  -13.1508 H   0  0  0  0  0  0  0  0  0  0  0  0
   10.8178  -28.4745  -12.5624 H   0  0  0  0  0  0  0  0  0  0  0  0
    9.6497  -25.1443  -10.4197 H   0  0  0  0  0  0  0  0  0  0  0  0
    8.9833  -25.5325  -12.0242 H   0  0  0  0  0  0  0  0  0  0  0  0
    7.1962  -25.1011  -10.4321 H   0  0  0  0  0  0  0  0  0  0  0  0
  1  4  1  0  0  0  0
  1  5  2  0  0  0  0
  2  4  2  0  0  0  0
  2 15  1  0  0  0  0
  3  5  1  0  0  0  0
  3 15  2  0  0  0  0
  4  7  1  0  0  0  0
  5 17  1  0  0  0  0
  6  9  1  0  0  0  0
  6 16  1  0  0  0  0
  6 19  2  0  0  0  0
  7 18  1  0  0  0  0
  7 20  2  0  0  0  0
  8 14  1  0  0  0  0
  8 17  1  0  0  0  0
  8 21  2  0  0  0  0
  9 10  1  0  0  0  0
 10 11  1  0  0  0  0
 11 12  1  0  0  0  0
 12 13  1  0  0  0  0
 13 16  1  0  0  0  0
 14 16  1  0  0  0  0
  1 22  1  0  0  0  0
  2 23  1  0  0  0  0
  3 24  1  0  0  0  0
  9 25  1  0  0  0  0
  9 26  1  0  0  0  0
 10 27  1  0  0  0  0
 10 28  1  0  0  0  0
 11 29  1  0  0  0  0
 11 30  1  0  0  0  0
 12 31  1  0  0  0  0
 12 32  1  0  0  0  0
 13 33  1  0  0  0  0
 13 34  1  0  0  0  0
 14 35  1  0  0  0  0
 14 36  1  0  0  0  0
 17 37  1  0  0  0  0
M  CHG  1  18  -1
M  END
> <Hybrid2>
-2.8631789684295654

> <Hybrid2>
-2.863179

$$$$
C62946751
  -OEChem-02152218493D

 37 38  0     0  0  0  0  0  0999 V2000
    8.6089  -25.3288  -10.1341 C   0  0  0  0  0  0  0  0  0  0  0  0
    6.6940  -26.0822   -8.9417 C   0  0  0  0  0  0  0  0  0  0  0  0
    8.1535  -27.6382   -9.7942 C   0  0  0  0  0  0  0  0  0  0  0  0
    7.4478  -25.0277   -9.4310 C   0  0  0  0  0  0  0  0  0  0  0  0
    8.9756  -26.6566  -10.3237 C   0  0  0  0  0  0  0  0  0  0  0  0
   14.2206  -25.5089  -12.2005 C   0  0  0  0  0  0  0  0  0  0  0  0
    7.0334  -23.6353   -9.2138 C   0  0  0  0  0  0  0  0  0  0  0  0
   11.0695  -26.1262  -11.6193 C   0  0  0  0  0  0  0  0  0  0  0  0
   15.5778  -25.2758  -11.5656 C   0  0  0  0  0  0  0  0  0  0  0  0
   16.5350  -26.4348  -11.8220 C   0  0  0  0  0  0  0  0  0  0  0  0
   16.3980  -27.5727  -10.8133 C   0  0  0  0  0  0  0  0  0  0  0  0
   15.0431  -28.2772  -10.8336 C   0  0  0  0  0  0  0  0  0  0  0  0
   13.8760  -27.3483  -10.5164 C   0  0  0  0  0  0  0  0  0  0  0  0
   12.1881  -26.9052  -12.2838 C   0  0  0  0  0  0  0  0  0  0  0  0
    7.0180  -27.3844   -9.1057 N   0  0  0  0  0  0  0  0  0  0  0  0
   13.4654  -26.5551  -11.6764 N   0  0  0  0  0  0  0  0  0  0  0  0
   10.1515  -26.9948  -11.0348 N   0  0  0  0  0  0  0  0  0  0  0  0
    5.9489  -23.4037   -8.5562 O   0  5  0  0  0  0  0  0  0  0  0  0
   13.8557  -24.7899  -13.1340 O   0  0  0  0  0  0  0  0  0  0  0  0
    7.7664  -22.6862   -9.6875 O   0  0  0  0  0  0  0  0  0  0  0  0
   11.0370  -24.8998  -11.6195 O   0  0  0  0  0  0  0  0  0  0  0  0
    9.2274  -24.5284  -10.5341 H   0  0  0  0  0  0  0  0  0  0  0  0
    5.7776  -25.9097   -8.3853 H   0  0  0  0  0  0  0  0  0  0  0  0
    8.3868  -28.6926   -9.9094 H   0  0  0  0  0  0  0  0  0  0  0  0
   15.9938  -24.3718  -12.0285 H   0  0  0  0  0  0  0  0  0  0  0  0
   15.4681  -25.0526  -10.4996 H   0  0  0  0  0  0  0  0  0  0  0  0
   16.4052  -26.8244  -12.8391 H   0  0  0  0  0  0  0  0  0  0  0  0
   17.5621  -26.0546  -11.7571 H   0  0  0  0  0  0  0  0  0  0  0  0
   17.1778  -28.3164  -11.0187 H   0  0  0  0  0  0  0  0  0  0  0  0
   16.5951  -27.1906   -9.8038 H   0  0  0  0  0  0  0  0  0  0  0  0
   14.8856  -28.7751  -11.7980 H   0  0  0  0  0  0  0  0  0  0  0  0
   15.0670  -29.0718  -10.0775 H   0  0  0  0  0  0  0  0  0  0  0  0
   13.0172  -27.9457  -10.1881 H   0  0  0  0  0  0  0  0  0  0  0  0
   14.1244  -26.6711   -9.6921 H   0  0  0  0  0  0  0  0  0  0  0  0
   12.2158  -26.6730  -13.3531 H   0  0  0  0  0  0  0  0  0  0  0  0
   11.9987  -27.9760  -12.1597 H   0  0  0  0  0  0  0  0  0  0  0  0
   10.3353  -27.9922  -11.1210 H   0  0  0  0  0  0  0  0  0  0  0  0
  1  4  1  0  0  0  0
  1  5  2  0  0  0  0
  2  4  2  0  0  0  0
  2 15  1  0  0  0  0
  3  5  1  0  0  0  0
  3 15  2  0  0  0  0
  4  7  1  0  0  0  0
  5 17  1  0  0  0  0
  6  9  1  0  0  0  0
  6 16  1  0  0  0  0
  6 19  2  0  0  0  0
  7 18  1  0  0  0  0
  7 20  2  0  0  0  0
  8 14  1  0  0  0  0
  8 17  1  0  0  0  0
  8 21  2  0  0  0  0
  9 10  1  0  0  0  0
 10 11  1  0  0  0  0
 11 12  1  0  0  0  0
 12 13  1  0  0  0  0
 13 16  1  0  0  0  0
 14 16  1  0  0  0  0
  1 22  1  0  0  0  0
  2 23  1  0  0  0  0
  3 24  1  0  0  0  0
  9 25  1  0  0  0  0
  9 26  1  0  0  0  0
 10 27  1  0  0  0  0
 10 28  1  0  0  0  0
 11 29  1  0  0  0  0
 11 30  1  0  0  0  0
 12 31  1  0  0  0  0
 12 32  1  0  0  0  0
 13 33  1  0  0  0  0
 13 34  1  0  0  0  0
 14 35  1  0  0  0  0
 14 36  1  0  0  0  0
 17 37  1  0  0  0  0
M  CHG  1  18  -1
M  END
> <Hybrid2>
-2.8631789684295654

> <Hybrid2>
-1.606532

$$$$
C62946854
  -OEChem-02152218493D

 35 36  0     0  0  0  0  0  0999 V2000
    7.7332  -27.9875   -9.1148 C   0  0  0  0  0  0  0  0  0  0  0  0
    5.3549  -28.0003   -9.1298 C   0  0  0  0  0  0  0  0  0  0  0  0
    6.4560  -26.0096   -9.4506 C   0  0  0  0  0  0  0  0  0  0  0  0
    6.5443  -28.7002   -9.0057 C   0  0  0  0  0  0  0  0  0  0  0  0
   12.1421  -26.2667  -11.6782 C   0  0  0  0  0  0  0  0  0  0  0  0
    7.6969  -26.6161   -9.3414 C   0  0  0  0  0  0  0  0  0  0  0  0
   11.4995  -27.1713  -12.5410 C   0  0  0  0  0  0  0  0  0  0  0  0
   13.4108  -26.7703  -11.5645 C   0  0  0  0  0  0  0  0  0  0  0  0
    6.5491  -30.1495   -8.7667 C   0  0  0  0  0  0  0  0  0  0  0  0
   10.1789  -26.3498   -9.3892 C   0  0  0  0  0  0  0  0  0  0  0  0
   10.1085  -27.1341  -13.0232 C   0  0  0  0  0  0  0  0  0  0  0  0
   14.6131  -26.3496  -10.8334 C   0  0  0  0  0  0  0  0  0  0  0  0
   11.5736  -25.0299  -11.0271 C   0  0  0  0  0  0  0  0  0  0  0  0
   11.1996  -25.2349   -9.5580 C   0  0  0  0  0  0  0  0  0  0  0  0
    5.2798  -26.6687   -9.3503 N   0  0  0  0  0  0  0  0  0  0  0  0
   12.3078  -28.1603  -12.9325 N   0  0  0  0  0  0  0  0  0  0  0  0
    8.8767  -25.8719   -9.4557 N   0  0  0  0  0  0  0  0  0  0  0  0
    5.4221  -30.7688   -8.6723 O   0  5  0  0  0  0  0  0  0  0  0  0
    7.6800  -30.7590   -8.6580 O   0  0  0  0  0  0  0  0  0  0  0  0
   10.5489  -27.5117   -9.2463 O   0  0  0  0  0  0  0  0  0  0  0  0
   13.5221  -27.9004  -12.3085 O   0  0  0  0  0  0  0  0  0  0  0  0
    8.6874  -28.5015   -9.0229 H   0  0  0  0  0  0  0  0  0  0  0  0
    4.3950  -28.5021   -9.0538 H   0  0  0  0  0  0  0  0  0  0  0  0
    6.3631  -24.9421   -9.6274 H   0  0  0  0  0  0  0  0  0  0  0  0
   10.0255  -26.5623  -13.9634 H   0  0  0  0  0  0  0  0  0  0  0  0
    9.7054  -28.1450  -13.2125 H   0  0  0  0  0  0  0  0  0  0  0  0
    9.4252  -26.6692  -12.2901 H   0  0  0  0  0  0  0  0  0  0  0  0
   14.6489  -26.7953   -9.8229 H   0  0  0  0  0  0  0  0  0  0  0  0
   15.5453  -26.6392  -11.3538 H   0  0  0  0  0  0  0  0  0  0  0  0
   14.6687  -25.2515  -10.7107 H   0  0  0  0  0  0  0  0  0  0  0  0
   12.2877  -24.2017  -11.1199 H   0  0  0  0  0  0  0  0  0  0  0  0
   10.6819  -24.7223  -11.5879 H   0  0  0  0  0  0  0  0  0  0  0  0
   12.0927  -25.5255   -8.9914 H   0  0  0  0  0  0  0  0  0  0  0  0
   10.8308  -24.3074   -9.1051 H   0  0  0  0  0  0  0  0  0  0  0  0
    8.7430  -24.8769   -9.6209 H   0  0  0  0  0  0  0  0  0  0  0  0
  1  4  2  0  0  0  0
  1  6  1  0  0  0  0
  2  4  1  0  0  0  0
  2 15  2  0  0  0  0
  3  6  2  0  0  0  0
  3 15  1  0  0  0  0
  4  9  1  0  0  0  0
  5  7  1  0  0  0  0
  5  8  2  0  0  0  0
  5 13  1  0  0  0  0
  6 17  1  0  0  0  0
  7 11  1  0  0  0  0
  7 16  2  0  0  0  0
  8 12  1  0  0  0  0
  8 21  1  0  0  0  0
  9 18  1  0  0  0  0
  9 19  2  0  0  0  0
 10 14  1  0  0  0  0
 10 17  1  0  0  0  0
 10 20  2  0  0  0  0
 13 14  1  0  0  0  0
 16 21  1  0  0  0  0
  1 22  1  0  0  0  0
  2 23  1  0  0  0  0
  3 24  1  0  0  0  0
 11 25  1  0  0  0  0
 11 26  1  0  0  0  0
 11 27  1  0  0  0  0
 12 28  1  0  0  0  0
 12 29  1  0  0  0  0
 12 30  1  0  0  0  0
 13 31  1  0  0  0  0
 13 32  1  0  0  0  0
 14 33  1  0  0  0  0
 14 34  1  0  0  0  0
 17 35  1  0  0  0  0
M  CHG  1  18  -1
M  END
> <Hybrid2>
-3.194728374481201

> <Hybrid2>
-3.194728

$$$$
C62946854
  -OEChem-02152218493D

 35 36  0     0  0  0  0  0  0999 V2000
    7.5092  -28.0605   -9.2445 C   0  0  0  0  0  0  0  0  0  0  0  0
    5.1342  -27.9532   -9.1777 C   0  0  0  0  0  0  0  0  0  0  0  0
    6.3304  -25.9957   -9.3021 C   0  0  0  0  0  0  0  0  0  0  0  0
    6.2876  -28.7211   -9.1780 C   0  0  0  0  0  0  0  0  0  0  0  0
   11.9279  -26.2693  -11.7421 C   0  0  0  0  0  0  0  0  0  0  0  0
    7.5398  -26.6718   -9.3079 C   0  0  0  0  0  0  0  0  0  0  0  0
   13.2000  -26.8671  -11.7393 C   0  0  0  0  0  0  0  0  0  0  0  0
   11.2234  -27.0071  -12.6562 C   0  0  0  0  0  0  0  0  0  0  0  0
    6.2217  -30.1869   -9.1101 C   0  0  0  0  0  0  0  0  0  0  0  0
   10.0301  -26.5254   -9.4112 C   0  0  0  0  0  0  0  0  0  0  0  0
   14.3789  -26.4895  -10.9414 C   0  0  0  0  0  0  0  0  0  0  0  0
    9.8471  -26.9543  -13.1661 C   0  0  0  0  0  0  0  0  0  0  0  0
   11.4455  -25.0917  -10.9314 C   0  0  0  0  0  0  0  0  0  0  0  0
   11.1037  -25.4505   -9.4842 C   0  0  0  0  0  0  0  0  0  0  0  0
    5.1242  -26.6027   -9.2383 N   0  0  0  0  0  0  0  0  0  0  0  0
   13.2786  -27.8969  -12.5867 N   0  0  0  0  0  0  0  0  0  0  0  0
    8.7540  -25.9789   -9.3758 N   0  0  0  0  0  0  0  0  0  0  0  0
    5.0665  -30.7562   -9.0494 O   0  5  0  0  0  0  0  0  0  0  0  0
    7.3211  -30.8605   -9.1131 O   0  0  0  0  0  0  0  0  0  0  0  0
   10.3414  -27.7130   -9.4180 O   0  0  0  0  0  0  0  0  0  0  0  0
   12.0187  -27.9815  -13.1672 O   0  0  0  0  0  0  0  0  0  0  0  0
    8.4368  -28.6285   -9.2468 H   0  0  0  0  0  0  0  0  0  0  0  0
    4.1514  -28.4121   -9.1272 H   0  0  0  0  0  0  0  0  0  0  0  0
    6.2897  -24.9115   -9.3495 H   0  0  0  0  0  0  0  0  0  0  0  0
   14.3980  -27.0250   -9.9767 H   0  0  0  0  0  0  0  0  0  0  0  0
   15.3258  -26.7132  -11.4645 H   0  0  0  0  0  0  0  0  0  0  0  0
   14.4043  -25.4072  -10.7213 H   0  0  0  0  0  0  0  0  0  0  0  0
    9.7694  -26.3014  -14.0542 H   0  0  0  0  0  0  0  0  0  0  0  0
    9.4671  -27.9516  -13.4568 H   0  0  0  0  0  0  0  0  0  0  0  0
    9.1333  -26.5712  -12.4127 H   0  0  0  0  0  0  0  0  0  0  0  0
   12.1999  -24.2949  -10.9518 H   0  0  0  0  0  0  0  0  0  0  0  0
   10.5556  -24.6758  -11.4209 H   0  0  0  0  0  0  0  0  0  0  0  0
   11.9959  -25.8502   -8.9870 H   0  0  0  0  0  0  0  0  0  0  0  0
   10.7982  -24.5660   -8.9134 H   0  0  0  0  0  0  0  0  0  0  0  0
    8.6689  -24.9659   -9.4188 H   0  0  0  0  0  0  0  0  0  0  0  0
  1  4  2  0  0  0  0
  1  6  1  0  0  0  0
  2  4  1  0  0  0  0
  2 15  2  0  0  0  0
  3  6  2  0  0  0  0
  3 15  1  0  0  0  0
  4  9  1  0  0  0  0
  5  7  1  0  0  0  0
  5  8  2  0  0  0  0
  5 13  1  0  0  0  0
  6 17  1  0  0  0  0
  7 11  1  0  0  0  0
  7 16  2  0  0  0  0
  8 12  1  0  0  0  0
  8 21  1  0  0  0  0
  9 18  1  0  0  0  0
  9 19  2  0  0  0  0
 10 14  1  0  0  0  0
 10 17  1  0  0  0  0
 10 20  2  0  0  0  0
 13 14  1  0  0  0  0
 16 21  1  0  0  0  0
  1 22  1  0  0  0  0
  2 23  1  0  0  0  0
  3 24  1  0  0  0  0
 11 25  1  0  0  0  0
 11 26  1  0  0  0  0
 11 27  1  0  0  0  0
 12 28  1  0  0  0  0
 12 29  1  0  0  0  0
 12 30  1  0  0  0  0
 13 31  1  0  0  0  0
 13 32  1  0  0  0  0
 14 33  1  0  0  0  0
 14 34  1  0  0  0  0
 17 35  1  0  0  0  0
M  CHG  1  18  -1
M  END
> <Hybrid2>
-3.194728374481201

> <Hybrid2>
-2.485534

$$$$
C62960013
  -OEChem-02152218493D

 42 43  0     0  0  0  0  0  0999 V2000
    5.7678  -26.2051   -8.8481 C   0  0  0  0  0  0  0  0  0  0  0  0
    4.4473  -30.7935   -8.8455 C   0  0  0  0  0  0  0  0  0  0  0  0
    7.6188  -25.6636  -10.4044 C   0  0  0  0  0  0  0  0  0  0  0  0
   13.7343  -26.5030  -12.7748 C   0  0  0  0  0  0  0  0  0  0  0  0
   12.7702  -27.1031  -13.7967 C   0  0  0  0  0  0  0  0  0  0  0  0
   13.0814  -26.7051  -11.4104 C   0  0  0  0  0  0  0  0  0  0  0  0
   11.5753  -27.6216  -12.9993 C   0  0  0  0  0  0  0  0  0  0  0  0
   10.8351  -27.5150  -10.5570 C   0  0  0  0  0  0  0  0  0  0  0  0
   10.9564  -25.3966  -11.8842 C   0  0  0  0  0  0  0  0  0  0  0  0
    9.3194  -27.5458  -10.7536 C   0  0  0  0  0  0  0  0  0  0  0  0
    9.4403  -25.4367  -12.0598 C   0  0  0  0  0  0  0  0  0  0  0  0
   11.5733  -26.7999  -11.6975 C   0  0  0  0  0  0  0  0  0  0  0  0
    5.3139  -27.3474   -7.9635 C   0  0  0  0  0  0  0  0  0  0  0  0
    4.6589  -29.6040   -7.9229 C   0  0  0  0  0  0  0  0  0  0  0  0
    8.7728  -26.2047  -11.0063 N   0  0  0  0  0  0  0  0  0  0  0  0
    6.9479  -26.5210   -9.5254 N   0  0  0  0  0  0  0  0  0  0  0  0
    5.4667  -31.1523   -9.4999 O   0  5  0  0  0  0  0  0  0  0  0  0
    5.1574  -25.1426   -8.9263 O   0  0  0  0  0  0  0  0  0  0  0  0
    3.2811  -31.2778   -8.8366 O   0  0  0  0  0  0  0  0  0  0  0  0
    7.2024  -24.5278  -10.6535 O   0  0  0  0  0  0  0  0  0  0  0  0
    5.0876  -28.5111   -8.7301 O   0  0  0  0  0  0  0  0  0  0  0  0
   14.7198  -26.9776  -12.8180 H   0  0  0  0  0  0  0  0  0  0  0  0
   13.8773  -25.4355  -12.9781 H   0  0  0  0  0  0  0  0  0  0  0  0
   12.4530  -26.3332  -14.5092 H   0  0  0  0  0  0  0  0  0  0  0  0
   13.2393  -27.9069  -14.3733 H   0  0  0  0  0  0  0  0  0  0  0  0
   13.4485  -27.6430  -10.9740 H   0  0  0  0  0  0  0  0  0  0  0  0
   13.3370  -25.8993  -10.7145 H   0  0  0  0  0  0  0  0  0  0  0  0
   10.6480  -27.5474  -13.5743 H   0  0  0  0  0  0  0  0  0  0  0  0
   11.7328  -28.6853  -12.7784 H   0  0  0  0  0  0  0  0  0  0  0  0
   11.0554  -27.0090   -9.6072 H   0  0  0  0  0  0  0  0  0  0  0  0
   11.2009  -28.5436  -10.4474 H   0  0  0  0  0  0  0  0  0  0  0  0
   11.3967  -24.8791  -12.7443 H   0  0  0  0  0  0  0  0  0  0  0  0
   11.1866  -24.7792  -11.0054 H   0  0  0  0  0  0  0  0  0  0  0  0
    9.0487  -28.1731  -11.6102 H   0  0  0  0  0  0  0  0  0  0  0  0
    8.8829  -27.9968   -9.8605 H   0  0  0  0  0  0  0  0  0  0  0  0
    9.0549  -24.4125  -12.0972 H   0  0  0  0  0  0  0  0  0  0  0  0
    9.1719  -25.9050  -13.0133 H   0  0  0  0  0  0  0  0  0  0  0  0
    6.0923  -27.5634   -7.2256 H   0  0  0  0  0  0  0  0  0  0  0  0
    4.3915  -27.0748   -7.4415 H   0  0  0  0  0  0  0  0  0  0  0  0
    5.4312  -29.8315   -7.1818 H   0  0  0  0  0  0  0  0  0  0  0  0
    3.7344  -29.3269   -7.4074 H   0  0  0  0  0  0  0  0  0  0  0  0
    7.3479  -27.4391   -9.3684 H   0  0  0  0  0  0  0  0  0  0  0  0
  1 13  1  0  0  0  0
  1 16  1  0  0  0  0
  1 18  2  0  0  0  0
  2 14  1  0  0  0  0
  2 17  1  0  0  0  0
  2 19  2  0  0  0  0
  3 15  1  0  0  0  0
  3 16  1  0  0  0  0
  3 20  2  0  0  0  0
  4  5  1  0  0  0  0
  4  6  1  0  0  0  0
  5  7  1  0  0  0  0
  6 12  1  0  0  0  0
  7 12  1  0  0  0  0
  8 10  1  0  0  0  0
  8 12  1  0  0  0  0
  9 11  1  0  0  0  0
  9 12  1  0  0  0  0
 10 15  1  0  0  0  0
 11 15  1  0  0  0  0
 13 21  1  0  0  0  0
 14 21  1  0  0  0  0
  4 22  1  0  0  0  0
  4 23  1  0  0  0  0
  5 24  1  0  0  0  0
  5 25  1  0  0  0  0
  6 26  1  0  0  0  0
  6 27  1  0  0  0  0
  7 28  1  0  0  0  0
  7 29  1  0  0  0  0
  8 30  1  0  0  0  0
  8 31  1  0  0  0  0
  9 32  1  0  0  0  0
  9 33  1  0  0  0  0
 10 34  1  0  0  0  0
 10 35  1  0  0  0  0
 11 36  1  0  0  0  0
 11 37  1  0  0  0  0
 13 38  1  0  0  0  0
 13 39  1  0  0  0  0
 14 40  1  0  0  0  0
 14 41  1  0  0  0  0
 16 42  1  0  0  0  0
M  CHG  1  17  -1
M  END
> <Hybrid2>
-4.128459930419922

> <Hybrid2>
-4.128460

$$$$
C62960013
  -OEChem-02152218493D

 42 43  0     0  0  0  0  0  0999 V2000
    6.4533  -25.5859   -8.9869 C   0  0  0  0  0  0  0  0  0  0  0  0
    5.1649  -30.1818   -8.8684 C   0  0  0  0  0  0  0  0  0  0  0  0
    8.2461  -25.0571  -10.6140 C   0  0  0  0  0  0  0  0  0  0  0  0
   14.2824  -25.8950  -13.1800 C   0  0  0  0  0  0  0  0  0  0  0  0
   13.2879  -26.5171  -14.1588 C   0  0  0  0  0  0  0  0  0  0  0  0
   13.6780  -26.0799  -11.7910 C   0  0  0  0  0  0  0  0  0  0  0  0
   12.1246  -27.0305  -13.3129 C   0  0  0  0  0  0  0  0  0  0  0  0
   11.4679  -26.8904  -10.8485 C   0  0  0  0  0  0  0  0  0  0  0  0
   11.5292  -24.7923  -12.2115 C   0  0  0  0  0  0  0  0  0  0  0  0
    9.9465  -26.9338  -10.9924 C   0  0  0  0  0  0  0  0  0  0  0  0
   10.0083  -24.8446  -12.3343 C   0  0  0  0  0  0  0  0  0  0  0  0
   12.1617  -26.1886  -12.0246 C   0  0  0  0  0  0  0  0  0  0  0  0
    6.0377  -26.7171   -8.0698 C   0  0  0  0  0  0  0  0  0  0  0  0
    5.3999  -28.9768   -7.9720 C   0  0  0  0  0  0  0  0  0  0  0  0
    9.3825  -25.6003  -11.2469 N   0  0  0  0  0  0  0  0  0  0  0  0
    7.6116  -25.9048   -9.6993 N   0  0  0  0  0  0  0  0  0  0  0  0
    6.1636  -30.5444   -9.5518 O   0  5  0  0  0  0  0  0  0  0  0  0
    5.8334  -24.5286   -9.0604 O   0  0  0  0  0  0  0  0  0  0  0  0
    4.0030  -30.6733   -8.8119 O   0  0  0  0  0  0  0  0  0  0  0  0
    7.8137  -23.9280  -10.8661 O   0  0  0  0  0  0  0  0  0  0  0  0
    5.7932  -27.8940   -8.8102 O   0  0  0  0  0  0  0  0  0  0  0  0
   15.2691  -26.3641  -13.2497 H   0  0  0  0  0  0  0  0  0  0  0  0
   14.4110  -24.8300  -13.4044 H   0  0  0  0  0  0  0  0  0  0  0  0
   12.9413  -25.7603  -14.8717 H   0  0  0  0  0  0  0  0  0  0  0  0
   13.7425  -27.3268  -14.7387 H   0  0  0  0  0  0  0  0  0  0  0  0
   14.0662  -27.0086  -11.3531 H   0  0  0  0  0  0  0  0  0  0  0  0
   13.9519  -25.2617  -11.1168 H   0  0  0  0  0  0  0  0  0  0  0  0
   11.1777  -26.9711  -13.8567 H   0  0  0  0  0  0  0  0  0  0  0  0
   12.2968  -28.0896  -13.0812 H   0  0  0  0  0  0  0  0  0  0  0  0
   11.7171  -26.3683   -9.9147 H   0  0  0  0  0  0  0  0  0  0  0  0
   11.8442  -27.9149  -10.7357 H   0  0  0  0  0  0  0  0  0  0  0  0
   11.9363  -24.2855  -13.0941 H   0  0  0  0  0  0  0  0  0  0  0  0
   11.7851  -24.1598  -11.3508 H   0  0  0  0  0  0  0  0  0  0  0  0
    9.6509  -27.5761  -11.8295 H   0  0  0  0  0  0  0  0  0  0  0  0
    9.5439  -27.3736  -10.0780 H   0  0  0  0  0  0  0  0  0  0  0  0
    9.6148  -23.8236  -12.3742 H   0  0  0  0  0  0  0  0  0  0  0  0
    9.7106  -25.3295  -13.2707 H   0  0  0  0  0  0  0  0  0  0  0  0
    6.8424  -26.9166   -7.3558 H   0  0  0  0  0  0  0  0  0  0  0  0
    5.1319  -26.4421   -7.5206 H   0  0  0  0  0  0  0  0  0  0  0  0
    6.1986  -29.1879   -7.2544 H   0  0  0  0  0  0  0  0  0  0  0  0
    4.4917  -28.6975   -7.4293 H   0  0  0  0  0  0  0  0  0  0  0  0
    8.0230  -26.8179   -9.5421 H   0  0  0  0  0  0  0  0  0  0  0  0
  1 13  1  0  0  0  0
  1 16  1  0  0  0  0
  1 18  2  0  0  0  0
  2 14  1  0  0  0  0
  2 17  1  0  0  0  0
  2 19  2  0  0  0  0
  3 15  1  0  0  0  0
  3 16  1  0  0  0  0
  3 20  2  0  0  0  0
  4  5  1  0  0  0  0
  4  6  1  0  0  0  0
  5  7  1  0  0  0  0
  6 12  1  0  0  0  0
  7 12  1  0  0  0  0
  8 10  1  0  0  0  0
  8 12  1  0  0  0  0
  9 11  1  0  0  0  0
  9 12  1  0  0  0  0
 10 15  1  0  0  0  0
 11 15  1  0  0  0  0
 13 21  1  0  0  0  0
 14 21  1  0  0  0  0
  4 22  1  0  0  0  0
  4 23  1  0  0  0  0
  5 24  1  0  0  0  0
  5 25  1  0  0  0  0
  6 26  1  0  0  0  0
  6 27  1  0  0  0  0
  7 28  1  0  0  0  0
  7 29  1  0  0  0  0
  8 30  1  0  0  0  0
  8 31  1  0  0  0  0
  9 32  1  0  0  0  0
  9 33  1  0  0  0  0
 10 34  1  0  0  0  0
 10 35  1  0  0  0  0
 11 36  1  0  0  0  0
 11 37  1  0  0  0  0
 13 38  1  0  0  0  0
 13 39  1  0  0  0  0
 14 40  1  0  0  0  0
 14 41  1  0  0  0  0
 16 42  1  0  0  0  0
M  CHG  1  17  -1
M  END
> <Hybrid2>
-4.128459930419922

> <Hybrid2>
-3.510992

$$$$
C63097447
  -OEChem-02152218493D

 36 36  0     1  0  0  0  0  0999 V2000
    3.1202  -28.2945   -9.7181 C   0  0  0  0  0  0  0  0  0  0  0  0
   12.2313  -27.3749   -9.9297 C   0  0  0  0  0  0  0  0  0  0  0  0
   13.2116  -27.6640  -10.9087 C   0  0  0  0  0  0  0  0  0  0  0  0
   11.1829  -26.7890  -10.6002 C   0  0  0  0  0  0  0  0  0  0  0  0
   12.6923  -27.2343  -12.1078 C   0  0  0  0  0  0  0  0  0  0  0  0
   14.5631  -28.3181  -10.6785 C   0  0  0  0  0  0  0  0  0  0  0  0
    7.5989  -27.0510   -9.4810 C   0  0  0  0  0  0  0  0  0  0  0  0
   13.1989  -27.2429  -13.4878 C   0  0  0  0  0  0  0  0  0  0  0  0
    5.2689  -28.7163   -7.4103 C   0  0  0  0  0  0  0  0  0  0  0  0
    7.3572  -29.5426   -9.3719 C   0  0  0  0  0  0  0  0  0  0  0  0
    4.5000  -28.7978   -9.8074 C   0  0  0  0  0  0  0  0  0  0  0  0
    9.8522  -26.2514  -10.1593 C   0  0  0  0  0  0  0  0  0  0  0  0
    5.4270  -28.1066   -8.8000 C   0  0  2  0  0  0  0  0  0  0  0  0
    2.0315  -27.8989   -9.6490 N   0  0  0  0  0  0  0  0  0  0  0  0
    8.9110  -27.3091   -9.8684 N   0  0  0  0  0  0  0  0  0  0  0  0
    6.8213  -28.1957   -9.2264 N   0  0  0  0  0  0  0  0  0  0  0  0
   14.8484  -28.6392   -9.4877 O   0  5  0  0  0  0  0  0  0  0  0  0
   15.2969  -28.4899  -11.6956 O   0  0  0  0  0  0  0  0  0  0  0  0
    7.1643  -25.9012   -9.3638 O   0  0  0  0  0  0  0  0  0  0  0  0
   11.4560  -26.6998  -11.9284 O   0  0  0  0  0  0  0  0  0  0  0  0
   12.2810  -27.5683   -8.8672 H   0  0  0  0  0  0  0  0  0  0  0  0
   12.9161  -28.1711  -14.0154 H   0  0  0  0  0  0  0  0  0  0  0  0
   12.8123  -26.3945  -14.0822 H   0  0  0  0  0  0  0  0  0  0  0  0
   14.3008  -27.1613  -13.5309 H   0  0  0  0  0  0  0  0  0  0  0  0
    5.4986  -29.7875   -7.4278 H   0  0  0  0  0  0  0  0  0  0  0  0
    5.9476  -28.2460   -6.6899 H   0  0  0  0  0  0  0  0  0  0  0  0
    4.2441  -28.5964   -7.0440 H   0  0  0  0  0  0  0  0  0  0  0  0
    7.7963  -29.8682   -8.4173 H   0  0  0  0  0  0  0  0  0  0  0  0
    6.5474  -30.2306   -9.6564 H   0  0  0  0  0  0  0  0  0  0  0  0
    8.1326  -29.5463  -10.1522 H   0  0  0  0  0  0  0  0  0  0  0  0
    4.8680  -28.6258  -10.8261 H   0  0  0  0  0  0  0  0  0  0  0  0
    4.5026  -29.8825   -9.6440 H   0  0  0  0  0  0  0  0  0  0  0  0
    9.9625  -25.6403   -9.2568 H   0  0  0  0  0  0  0  0  0  0  0  0
    9.4106  -25.6134  -10.9320 H   0  0  0  0  0  0  0  0  0  0  0  0
    5.1893  -27.0374   -8.7421 H   0  0  0  0  0  0  0  0  0  0  0  0
    9.2166  -28.2715   -9.9491 H   0  0  0  0  0  0  0  0  0  0  0  0
  1 11  1  0  0  0  0
  1 14  3  0  0  0  0
  2  3  1  0  0  0  0
  2  4  2  0  0  0  0
  3  5  2  0  0  0  0
  3  6  1  0  0  0  0
  4 12  1  0  0  0  0
  4 20  1  0  0  0  0
  5  8  1  0  0  0  0
  5 20  1  0  0  0  0
  6 17  1  0  0  0  0
  6 18  2  0  0  0  0
  7 15  1  0  0  0  0
  7 16  1  0  0  0  0
  7 19  2  0  0  0  0
  9 13  1  0  0  0  0
 10 16  1  0  0  0  0
 11 13  1  0  0  0  0
 12 15  1  0  0  0  0
 13 16  1  0  0  0  0
  2 21  1  0  0  0  0
  8 22  1  0  0  0  0
  8 23  1  0  0  0  0
  8 24  1  0  0  0  0
  9 25  1  0  0  0  0
  9 26  1  0  0  0  0
  9 27  1  0  0  0  0
 10 28  1  0  0  0  0
 10 29  1  0  0  0  0
 10 30  1  0  0  0  0
 11 31  1  0  0  0  0
 11 32  1  0  0  0  0
 12 33  1  0  0  0  0
 12 34  1  0  0  0  0
 13 35  1  0  0  0  0
 15 36  1  0  0  0  0
M  CHG  1  17  -1
M  END
> <Hybrid2>
-2.715857744216919

> <Hybrid2>
-2.715858

$$$$
C63097447
  -OEChem-02152218493D

 36 36  0     1  0  0  0  0  0999 V2000
    3.3335  -28.2840   -9.6410 C   0  0  0  0  0  0  0  0  0  0  0  0
   12.3738  -26.8770  -10.0840 C   0  0  0  0  0  0  0  0  0  0  0  0
   13.3804  -27.3184  -10.9757 C   0  0  0  0  0  0  0  0  0  0  0  0
   11.2991  -26.5229  -10.8660 C   0  0  0  0  0  0  0  0  0  0  0  0
   12.8489  -27.2029  -12.2391 C   0  0  0  0  0  0  0  0  0  0  0  0
   14.7665  -27.8194  -10.6082 C   0  0  0  0  0  0  0  0  0  0  0  0
    7.7258  -26.7460   -9.7050 C   0  0  0  0  0  0  0  0  0  0  0  0
   13.3699  -27.4910  -13.5833 C   0  0  0  0  0  0  0  0  0  0  0  0
    5.4790  -28.0418   -7.3045 C   0  0  0  0  0  0  0  0  0  0  0  0
    7.6346  -29.1589   -9.0358 C   0  0  0  0  0  0  0  0  0  0  0  0
    4.7423  -28.7086   -9.6190 C   0  0  0  0  0  0  0  0  0  0  0  0
    9.9336  -25.9827  -10.5535 C   0  0  0  0  0  0  0  0  0  0  0  0
    5.6147  -27.7525   -8.7965 C   0  0  2  0  0  0  0  0  0  0  0  0
    2.2222  -27.9507   -9.6595 N   0  0  0  0  0  0  0  0  0  0  0  0
    9.0552  -27.0034  -10.0284 N   0  0  0  0  0  0  0  0  0  0  0  0
    7.0164  -27.8494   -9.1963 N   0  0  0  0  0  0  0  0  0  0  0  0
   15.0579  -27.8456   -9.3766 O   0  5  0  0  0  0  0  0  0  0  0  0
   15.5202  -28.1705  -11.5627 O   0  0  0  0  0  0  0  0  0  0  0  0
    7.2210  -25.6283   -9.8489 O   0  0  0  0  0  0  0  0  0  0  0  0
   11.5805  -26.7187  -12.1810 O   0  0  0  0  0  0  0  0  0  0  0  0
   12.4237  -26.8225   -9.0055 H   0  0  0  0  0  0  0  0  0  0  0  0
   13.1496  -28.5298  -13.8870 H   0  0  0  0  0  0  0  0  0  0  0  0
   12.9389  -26.8239  -14.3525 H   0  0  0  0  0  0  0  0  0  0  0  0
   14.4652  -27.3536  -13.6472 H   0  0  0  0  0  0  0  0  0  0  0  0
    5.7735  -29.0731   -7.0807 H   0  0  0  0  0  0  0  0  0  0  0  0
    6.1201  -27.3804   -6.7110 H   0  0  0  0  0  0  0  0  0  0  0  0
    4.4449  -27.9057   -6.9714 H   0  0  0  0  0  0  0  0  0  0  0  0
    8.0823  -29.2333   -8.0338 H   0  0  0  0  0  0  0  0  0  0  0  0
    6.8711  -29.9417   -9.1552 H   0  0  0  0  0  0  0  0  0  0  0  0
    8.4170  -29.2906   -9.7976 H   0  0  0  0  0  0  0  0  0  0  0  0
    5.1100  -28.7484  -10.6514 H   0  0  0  0  0  0  0  0  0  0  0  0
    4.8089  -29.7263   -9.2150 H   0  0  0  0  0  0  0  0  0  0  0  0
    9.9970  -25.1784   -9.8125 H   0  0  0  0  0  0  0  0  0  0  0  0
    9.4624  -25.5637  -11.4488 H   0  0  0  0  0  0  0  0  0  0  0  0
    5.3120  -26.7144   -8.9805 H   0  0  0  0  0  0  0  0  0  0  0  0
    9.4195  -27.9386   -9.8910 H   0  0  0  0  0  0  0  0  0  0  0  0
  1 11  1  0  0  0  0
  1 14  3  0  0  0  0
  2  3  1  0  0  0  0
  2  4  2  0  0  0  0
  3  5  2  0  0  0  0
  3  6  1  0  0  0  0
  4 12  1  0  0  0  0
  4 20  1  0  0  0  0
  5  8  1  0  0  0  0
  5 20  1  0  0  0  0
  6 17  1  0  0  0  0
  6 18  2  0  0  0  0
  7 15  1  0  0  0  0
  7 16  1  0  0  0  0
  7 19  2  0  0  0  0
  9 13  1  0  0  0  0
 10 16  1  0  0  0  0
 11 13  1  0  0  0  0
 12 15  1  0  0  0  0
 13 16  1  0  0  0  0
  2 21  1  0  0  0  0
  8 22  1  0  0  0  0
  8 23  1  0  0  0  0
  8 24  1  0  0  0  0
  9 25  1  0  0  0  0
  9 26  1  0  0  0  0
  9 27  1  0  0  0  0
 10 28  1  0  0  0  0
 10 29  1  0  0  0  0
 10 30  1  0  0  0  0
 11 31  1  0  0  0  0
 11 32  1  0  0  0  0
 12 33  1  0  0  0  0
 12 34  1  0  0  0  0
 13 35  1  0  0  0  0
 15 36  1  0  0  0  0
M  CHG  1  17  -1
M  END
> <Hybrid2>
-2.715857744216919

> <Hybrid2>
-2.005398

$$$$
C65735029
  -OEChem-02152218493D

 32 32  0     1  0  0  0  0  0999 V2000
    5.8998  -28.9831   -8.7610 C   0  0  0  0  0  0  0  0  0  0  0  0
    8.1515  -25.4605   -9.8599 C   0  0  0  0  0  0  0  0  0  0  0  0
   10.7894  -26.9898  -11.0759 C   0  0  0  0  0  0  0  0  0  0  0  0
    6.3584  -27.5889   -8.9133 C   0  0  0  0  0  0  0  0  0  0  0  0
    7.8279  -27.8913   -9.1034 C   0  0  2  0  0  0  0  0  0  0  0  0
   13.0451  -25.6976  -12.2556 C   0  0  0  0  0  0  0  0  0  0  0  0
   14.4229  -27.4385  -11.0809 C   0  0  0  0  0  0  0  0  0  0  0  0
   12.7486  -28.1325  -12.8196 C   0  0  0  0  0  0  0  0  0  0  0  0
    8.5138  -26.9408  -10.0659 C   0  0  2  0  0  0  0  0  0  0  0  0
   13.0692  -27.1266  -11.7150 C   0  0  0  0  0  0  0  0  0  0  0  0
    6.7083  -29.9012   -9.1687 N   0  0  0  0  0  0  0  0  0  0  0  0
    9.9435  -27.1373   -9.9969 N   0  0  0  0  0  0  0  0  0  0  0  0
    8.4243  -24.9660   -8.7311 O   0  5  0  0  0  0  0  0  0  0  0  0
    7.6167  -24.9081  -10.8654 O   0  0  0  0  0  0  0  0  0  0  0  0
   10.4519  -26.6791  -12.2135 O   0  0  0  0  0  0  0  0  0  0  0  0
    7.8626  -29.2251   -9.6385 O   0  0  0  0  0  0  0  0  0  0  0  0
   12.0784  -27.2425  -10.6930 O   0  0  0  0  0  0  0  0  0  0  0  0
    4.3717  -29.3244   -8.1205 Cl  0  0  0  0  0  0  0  0  0  0  0  0
    5.8916  -27.0659   -9.7471 H   0  0  0  0  0  0  0  0  0  0  0  0
    6.1717  -27.0577   -7.9772 H   0  0  0  0  0  0  0  0  0  0  0  0
    8.3528  -27.8843   -8.1427 H   0  0  0  0  0  0  0  0  0  0  0  0
   12.0750  -25.4698  -12.7116 H   0  0  0  0  0  0  0  0  0  0  0  0
   13.2390  -24.9643  -11.4660 H   0  0  0  0  0  0  0  0  0  0  0  0
   13.7957  -25.5648  -13.0432 H   0  0  0  0  0  0  0  0  0  0  0  0
   14.4447  -28.4628  -10.6916 H   0  0  0  0  0  0  0  0  0  0  0  0
   14.6149  -26.7795  -10.2264 H   0  0  0  0  0  0  0  0  0  0  0  0
   15.2415  -27.3229  -11.7986 H   0  0  0  0  0  0  0  0  0  0  0  0
   12.7658  -29.1575  -12.4321 H   0  0  0  0  0  0  0  0  0  0  0  0
   11.7643  -27.9464  -13.2613 H   0  0  0  0  0  0  0  0  0  0  0  0
   13.5010  -28.0901  -13.6155 H   0  0  0  0  0  0  0  0  0  0  0  0
    8.2156  -27.2076  -11.0873 H   0  0  0  0  0  0  0  0  0  0  0  0
   10.3483  -27.3989   -9.1033 H   0  0  0  0  0  0  0  0  0  0  0  0
  1  4  1  0  0  0  0
  1 11  2  0  0  0  0
  1 18  1  0  0  0  0
  2  9  1  0  0  0  0
  2 13  1  0  0  0  0
  2 14  2  0  0  0  0
  3 12  1  0  0  0  0
  3 15  2  0  0  0  0
  3 17  1  0  0  0  0
  4  5  1  0  0  0  0
  5  9  1  0  0  0  0
  5 16  1  0  0  0  0
  6 10  1  0  0  0  0
  7 10  1  0  0  0  0
  8 10  1  0  0  0  0
  9 12  1  0  0  0  0
 10 17  1  0  0  0  0
 11 16  1  0  0  0  0
  4 19  1  0  0  0  0
  4 20  1  0  0  0  0
  5 21  1  0  0  0  0
  6 22  1  0  0  0  0
  6 23  1  0  0  0  0
  6 24  1  0  0  0  0
  7 25  1  0  0  0  0
  7 26  1  0  0  0  0
  7 27  1  0  0  0  0
  8 28  1  0  0  0  0
  8 29  1  0  0  0  0
  8 30  1  0  0  0  0
  9 31  1  0  0  0  0
 12 32  1  0  0  0  0
M  CHG  1  13  -1
M  END
> <Hybrid2>
-3.5025103092193604

> <Hybrid2>
-3.502510

$$$$
C65735029
  -OEChem-02152218493D

 32 32  0     1  0  0  0  0  0999 V2000
    6.2755  -29.1425   -8.7360 C   0  0  0  0  0  0  0  0  0  0  0  0
    8.3790  -25.7100  -10.3106 C   0  0  0  0  0  0  0  0  0  0  0  0
   11.2074  -27.2180  -11.0192 C   0  0  0  0  0  0  0  0  0  0  0  0
    6.6534  -27.7673   -9.1142 C   0  0  0  0  0  0  0  0  0  0  0  0
    8.1504  -27.9799   -9.1354 C   0  0  2  0  0  0  0  0  0  0  0  0
   13.4680  -25.9854  -12.2521 C   0  0  0  0  0  0  0  0  0  0  0  0
   14.8491  -27.3659  -10.6723 C   0  0  0  0  0  0  0  0  0  0  0  0
   13.3819  -28.4982  -12.3674 C   0  0  0  0  0  0  0  0  0  0  0  0
    8.8540  -27.1690  -10.2066 C   0  0  2  0  0  0  0  0  0  0  0  0
   13.5383  -27.2850  -11.4516 C   0  0  0  0  0  0  0  0  0  0  0  0
    7.1748  -30.0514   -8.9028 N   0  0  0  0  0  0  0  0  0  0  0  0
   10.2820  -27.2338   -9.9969 N   0  0  0  0  0  0  0  0  0  0  0  0
    8.5194  -24.9974   -9.2783 O   0  5  0  0  0  0  0  0  0  0  0  0
    7.8990  -25.3953  -11.4387 O   0  0  0  0  0  0  0  0  0  0  0  0
   10.9508  -27.1484  -12.2167 O   0  0  0  0  0  0  0  0  0  0  0  0
    8.3190  -29.3818   -9.4055 O   0  0  0  0  0  0  0  0  0  0  0  0
   12.4718  -27.2919  -10.5018 O   0  0  0  0  0  0  0  0  0  0  0  0
    4.7230  -29.4831   -8.1569 Cl  0  0  0  0  0  0  0  0  0  0  0  0
    6.2278  -27.4446  -10.0638 H   0  0  0  0  0  0  0  0  0  0  0  0
    6.3513  -27.0909   -8.3114 H   0  0  0  0  0  0  0  0  0  0  0  0
    8.5880  -27.7554   -8.1572 H   0  0  0  0  0  0  0  0  0  0  0  0
   12.5285  -25.9235  -12.8130 H   0  0  0  0  0  0  0  0  0  0  0  0
   13.5438  -25.1071  -11.6028 H   0  0  0  0  0  0  0  0  0  0  0  0
   14.2741  -25.9386  -12.9932 H   0  0  0  0  0  0  0  0  0  0  0  0
   14.9038  -28.2968  -10.0964 H   0  0  0  0  0  0  0  0  0  0  0  0
   14.9221  -26.5487   -9.9456 H   0  0  0  0  0  0  0  0  0  0  0  0
   15.7178  -27.3177  -11.3367 H   0  0  0  0  0  0  0  0  0  0  0  0
   13.4323  -29.4305  -11.7934 H   0  0  0  0  0  0  0  0  0  0  0  0
   12.4297  -28.4758  -12.9074 H   0  0  0  0  0  0  0  0  0  0  0  0
   14.1964  -28.5413  -13.0994 H   0  0  0  0  0  0  0  0  0  0  0  0
    8.6642  -27.6408  -11.1786 H   0  0  0  0  0  0  0  0  0  0  0  0
   10.6236  -27.2943   -9.0427 H   0  0  0  0  0  0  0  0  0  0  0  0
  1  4  1  0  0  0  0
  1 11  2  0  0  0  0
  1 18  1  0  0  0  0
  2  9  1  0  0  0  0
  2 13  1  0  0  0  0
  2 14  2  0  0  0  0
  3 12  1  0  0  0  0
  3 15  2  0  0  0  0
  3 17  1  0  0  0  0
  4  5  1  0  0  0  0
  5  9  1  0  0  0  0
  5 16  1  0  0  0  0
  6 10  1  0  0  0  0
  7 10  1  0  0  0  0
  8 10  1  0  0  0  0
  9 12  1  0  0  0  0
 10 17  1  0  0  0  0
 11 16  1  0  0  0  0
  4 19  1  0  0  0  0
  4 20  1  0  0  0  0
  5 21  1  0  0  0  0
  6 22  1  0  0  0  0
  6 23  1  0  0  0  0
  6 24  1  0  0  0  0
  7 25  1  0  0  0  0
  7 26  1  0  0  0  0
  7 27  1  0  0  0  0
  8 28  1  0  0  0  0
  8 29  1  0  0  0  0
  8 30  1  0  0  0  0
  9 31  1  0  0  0  0
 12 32  1  0  0  0  0
M  CHG  1  13  -1
M  END
> <Hybrid2>
-3.5025103092193604

> <Hybrid2>
-3.396848

$$$$
C01870271
  -OEChem-02152218493D

 17 17  0     0  0  0  0  0  0999 V2000
    8.6103  -27.4986   -9.2356 C   0  0  0  0  0  0  0  0  0  0  0  0
    9.9063  -27.5447   -9.7493 C   0  0  0  0  0  0  0  0  0  0  0  0
    8.1392  -25.5599  -10.5981 C   0  0  0  0  0  0  0  0  0  0  0  0
    7.7267  -26.5062   -9.6600 C   0  0  0  0  0  0  0  0  0  0  0  0
    9.4352  -25.6060  -11.1119 C   0  0  0  0  0  0  0  0  0  0  0  0
   10.3187  -26.5984  -10.6875 C   0  0  0  0  0  0  0  0  0  0  0  0
    6.4074  -26.4598   -9.1368 N   0  3  0  0  0  0  0  0  0  0  0  0
    6.0570  -27.3208   -8.2939 O   0  5  0  0  0  0  0  0  0  0  0  0
    8.6771  -23.4492  -12.5283 O   0  5  0  0  0  0  0  0  0  0  0  0
   11.0916  -23.5856  -11.7156 O   0  5  0  0  0  0  0  0  0  0  0  0
    5.6279  -25.5593   -9.5319 O   0  0  0  0  0  0  0  0  0  0  0  0
   10.2853  -25.1341  -13.5892 O   0  0  0  0  0  0  0  0  0  0  0  0
    9.8960  -24.3749  -12.3002 P   0  0  0  0  0  0  0  0  0  0  0  0
   12.0881  -26.7000  -11.3574 Br  0  0  0  0  0  0  0  0  0  0  0  0
    8.3008  -28.2419   -8.5049 H   0  0  0  0  0  0  0  0  0  0  0  0
   10.5802  -28.3261   -9.4070 H   0  0  0  0  0  0  0  0  0  0  0  0
    7.4550  -24.7837  -10.9328 H   0  0  0  0  0  0  0  0  0  0  0  0
  1  2  1  0  0  0  0
  1  4  2  0  0  0  0
  2  6  2  0  0  0  0
  3  4  1  0  0  0  0
  3  5  2  0  0  0  0
  4  7  1  0  0  0  0
  5  6  1  0  0  0  0
  5 13  1  0  0  0  0
  6 14  1  0  0  0  0
  7  8  1  0  0  0  0
  7 11  2  0  0  0  0
  9 13  1  0  0  0  0
 10 13  1  0  0  0  0
 12 13  2  0  0  0  0
  1 15  1  0  0  0  0
  2 16  1  0  0  0  0
  3 17  1  0  0  0  0
M  CHG  4   7   1   8  -1   9  -1  10  -1
M  END
> <Hybrid2>
-3.9926774501800537

> <Hybrid2>
-3.992677

$$$$
C01870271
  -OEChem-02152218493D

 17 17  0     0  0  0  0  0  0999 V2000
    9.5033  -27.3319   -9.0707 C   0  0  0  0  0  0  0  0  0  0  0  0
   10.7726  -27.5659   -9.5995 C   0  0  0  0  0  0  0  0  0  0  0  0
    9.1829  -25.5230  -10.6399 C   0  0  0  0  0  0  0  0  0  0  0  0
    8.7084  -26.3105   -9.5909 C   0  0  0  0  0  0  0  0  0  0  0  0
   10.4523  -25.7569  -11.1687 C   0  0  0  0  0  0  0  0  0  0  0  0
   11.2471  -26.7784  -10.6484 C   0  0  0  0  0  0  0  0  0  0  0  0
    7.4161  -26.0729   -9.0523 N   0  3  0  0  0  0  0  0  0  0  0  0
    7.0087  -26.7931   -8.1090 O   0  5  0  0  0  0  0  0  0  0  0  0
    9.8662  -23.7097  -12.8113 O   0  5  0  0  0  0  0  0  0  0  0  0
   12.2791  -23.9946  -12.0331 O   0  5  0  0  0  0  0  0  0  0  0  0
    6.7167  -25.1495   -9.5347 O   0  0  0  0  0  0  0  0  0  0  0  0
   11.2700  -25.6570  -13.6992 O   0  0  0  0  0  0  0  0  0  0  0  0
   10.9953  -24.7212  -12.5000 P   0  0  0  0  0  0  0  0  0  0  0  0
   12.9773  -27.1323  -11.3347 Br  0  0  0  0  0  0  0  0  0  0  0  0
    9.1447  -27.9527   -8.2532 H   0  0  0  0  0  0  0  0  0  0  0  0
   11.3770  -28.3670   -9.1814 H   0  0  0  0  0  0  0  0  0  0  0  0
    8.5680  -24.7252  -11.0496 H   0  0  0  0  0  0  0  0  0  0  0  0
  1  2  1  0  0  0  0
  1  4  2  0  0  0  0
  2  6  2  0  0  0  0
  3  4  1  0  0  0  0
  3  5  2  0  0  0  0
  4  7  1  0  0  0  0
  5  6  1  0  0  0  0
  5 13  1  0  0  0  0
  6 14  1  0  0  0  0
  7  8  1  0  0  0  0
  7 11  2  0  0  0  0
  9 13  1  0  0  0  0
 10 13  1  0  0  0  0
 12 13  2  0  0  0  0
  1 15  1  0  0  0  0
  2 16  1  0  0  0  0
  3 17  1  0  0  0  0
M  CHG  4   7   1   8  -1   9  -1  10  -1
M  END
> <Hybrid2>
-3.9926774501800537

> <Hybrid2>
-3.926679

$$$$
C03051817
  -OEChem-02152218493D

 32 33  0     1  0  0  0  0  0999 V2000
    8.4040  -24.5822   -9.3802 C   0  0  0  0  0  0  0  0  0  0  0  0
    7.6222  -25.7128   -9.1436 C   0  0  0  0  0  0  0  0  0  0  0  0
    9.5058  -27.1275   -9.6802 C   0  0  0  0  0  0  0  0  0  0  0  0
    9.7367  -24.7241   -9.7669 C   0  0  0  0  0  0  0  0  0  0  0  0
   10.2876  -25.9968   -9.9169 C   0  0  0  0  0  0  0  0  0  0  0  0
    8.1731  -26.9855   -9.2936 C   0  0  0  0  0  0  0  0  0  0  0  0
   13.8162  -28.2605   -8.7023 C   0  0  0  0  0  0  0  0  0  0  0  0
   12.5650  -27.9957   -9.1065 C   0  0  0  0  0  0  0  0  0  0  0  0
   14.6984  -27.5635  -10.9552 C   0  0  0  0  0  0  0  0  0  0  0  0
   13.4460  -27.2994  -11.3553 C   0  0  0  0  0  0  0  0  0  0  0  0
   10.5409  -23.5120  -10.0108 C   0  0  0  0  0  0  0  0  0  0  0  0
   13.2751  -26.8709  -12.7999 C   0  0  0  0  0  0  0  0  0  0  0  0
   15.0219  -28.0475   -9.5700 C   0  0  0  0  0  0  0  0  0  0  0  0
   12.2370  -27.4518  -10.4723 C   0  0  2  0  0  0  0  0  0  0  0  0
   11.6064  -26.1583  -10.2993 N   0  0  0  0  0  0  0  0  0  0  0  0
    7.3767  -28.1362   -9.0527 N   0  3  0  0  0  0  0  0  0  0  0  0
   11.1923  -22.9962   -9.0287 O   0  5  0  0  0  0  0  0  0  0  0  0
   13.8937  -25.8187  -13.1206 O   0  5  0  0  0  0  0  0  0  0  0  0
    6.1802  -27.9859   -8.7060 O   0  5  0  0  0  0  0  0  0  0  0  0
   10.5617  -23.0140  -11.1967 O   0  0  0  0  0  0  0  0  0  0  0  0
   12.5364  -27.6218  -13.4949 O   0  0  0  0  0  0  0  0  0  0  0  0
    7.8914  -29.2720   -9.1929 O   0  0  0  0  0  0  0  0  0  0  0  0
    7.9640  -23.5954   -9.2602 H   0  0  0  0  0  0  0  0  0  0  0  0
    6.5849  -25.5879   -8.8428 H   0  0  0  0  0  0  0  0  0  0  0  0
    9.9371  -28.1197   -9.7977 H   0  0  0  0  0  0  0  0  0  0  0  0
   13.9794  -28.6497   -7.7015 H   0  0  0  0  0  0  0  0  0  0  0  0
   11.7412  -28.1838   -8.4225 H   0  0  0  0  0  0  0  0  0  0  0  0
   15.5368  -27.4455  -11.6365 H   0  0  0  0  0  0  0  0  0  0  0  0
   15.6867  -27.3235   -9.0858 H   0  0  0  0  0  0  0  0  0  0  0  0
   15.5679  -28.9945   -9.6491 H   0  0  0  0  0  0  0  0  0  0  0  0
   11.5265  -28.1333  -10.9538 H   0  0  0  0  0  0  0  0  0  0  0  0
   12.1672  -25.3338  -10.4677 H   0  0  0  0  0  0  0  0  0  0  0  0
  1  2  1  0  0  0  0
  1  4  2  0  0  0  0
  2  6  2  0  0  0  0
  3  5  2  0  0  0  0
  3  6  1  0  0  0  0
  4  5  1  0  0  0  0
  4 11  1  0  0  0  0
  5 15  1  0  0  0  0
  6 16  1  0  0  0  0
  7  8  2  0  0  0  0
  7 13  1  0  0  0  0
  8 14  1  0  0  0  0
  9 10  2  0  0  0  0
  9 13  1  0  0  0  0
 10 12  1  0  0  0  0
 10 14  1  0  0  0  0
 11 17  1  0  0  0  0
 11 20  2  0  0  0  0
 12 18  1  0  0  0  0
 12 21  2  0  0  0  0
 14 15  1  0  0  0  0
 16 19  1  0  0  0  0
 16 22  2  0  0  0  0
  1 23  1  0  0  0  0
  2 24  1  0  0  0  0
  3 25  1  0  0  0  0
  7 26  1  0  0  0  0
  8 27  1  0  0  0  0
  9 28  1  0  0  0  0
 13 29  1  0  0  0  0
 13 30  1  0  0  0  0
 14 31  1  0  0  0  0
 15 32  1  0  0  0  0
M  CHG  4  16   1  17  -1  18  -1  19  -1
M  END
> <Hybrid2>
-4.245911598205566

> <Hybrid2>
-4.245912

$$$$
C03051817
  -OEChem-02152218493D

 32 33  0     1  0  0  0  0  0999 V2000
    6.8013  -25.8216   -9.3356 C   0  0  0  0  0  0  0  0  0  0  0  0
    6.5362  -27.0979   -8.8394 C   0  0  0  0  0  0  0  0  0  0  0  0
    8.5239  -27.9342   -9.9288 C   0  0  0  0  0  0  0  0  0  0  0  0
    7.9277  -25.6015  -10.1284 C   0  0  0  0  0  0  0  0  0  0  0  0
    8.7890  -26.6578  -10.4249 C   0  0  0  0  0  0  0  0  0  0  0  0
    7.3975  -28.1543   -9.1360 C   0  0  0  0  0  0  0  0  0  0  0  0
   13.0523  -27.5917  -10.3715 C   0  0  0  0  0  0  0  0  0  0  0  0
   11.7226  -27.7662  -10.3557 C   0  0  0  0  0  0  0  0  0  0  0  0
   12.9442  -26.9380  -12.8006 C   0  0  0  0  0  0  0  0  0  0  0  0
   11.6149  -27.1131  -12.7805 C   0  0  0  0  0  0  0  0  0  0  0  0
    8.1844  -24.2421  -10.6400 C   0  0  0  0  0  0  0  0  0  0  0  0
   10.8903  -26.9329  -14.1005 C   0  0  0  0  0  0  0  0  0  0  0  0
   13.8060  -27.1318  -11.5850 C   0  0  0  0  0  0  0  0  0  0  0  0
   10.8433  -27.5147  -11.5525 C   0  0  2  0  0  0  0  0  0  0  0  0
    9.9106  -26.4598  -11.2089 N   0  0  0  0  0  0  0  0  0  0  0  0
    7.1270  -29.4535   -8.6308 N   0  3  0  0  0  0  0  0  0  0  0  0
    7.3587  -23.3033  -10.3375 O   0  5  0  0  0  0  0  0  0  0  0  0
   10.7785  -27.9809  -14.7947 O   0  5  0  0  0  0  0  0  0  0  0  0
    6.1082  -29.6296   -7.9198 O   0  5  0  0  0  0  0  0  0  0  0  0
    9.2245  -24.0444  -11.3707 O   0  0  0  0  0  0  0  0  0  0  0  0
   10.4926  -25.7583  -14.3343 O   0  0  0  0  0  0  0  0  0  0  0  0
    7.9145  -30.3901   -8.9089 O   0  0  0  0  0  0  0  0  0  0  0  0
    6.1231  -25.0060   -9.0980 H   0  0  0  0  0  0  0  0  0  0  0  0
    5.6547  -27.2557   -8.2228 H   0  0  0  0  0  0  0  0  0  0  0  0
    9.1970  -28.7573  -10.1611 H   0  0  0  0  0  0  0  0  0  0  0  0
   13.6244  -27.7903   -9.4698 H   0  0  0  0  0  0  0  0  0  0  0  0
   11.2488  -28.1097   -9.4395 H   0  0  0  0  0  0  0  0  0  0  0  0
   13.4547  -26.6561  -13.7177 H   0  0  0  0  0  0  0  0  0  0  0  0
   14.3134  -26.1887  -11.3539 H   0  0  0  0  0  0  0  0  0  0  0  0
   14.5788  -27.8730  -11.8187 H   0  0  0  0  0  0  0  0  0  0  0  0
   10.2819  -28.4311  -11.7672 H   0  0  0  0  0  0  0  0  0  0  0  0
   10.0968  -25.5314  -11.5638 H   0  0  0  0  0  0  0  0  0  0  0  0
  1  2  1  0  0  0  0
  1  4  2  0  0  0  0
  2  6  2  0  0  0  0
  3  5  2  0  0  0  0
  3  6  1  0  0  0  0
  4  5  1  0  0  0  0
  4 11  1  0  0  0  0
  5 15  1  0  0  0  0
  6 16  1  0  0  0  0
  7  8  2  0  0  0  0
  7 13  1  0  0  0  0
  8 14  1  0  0  0  0
  9 10  2  0  0  0  0
  9 13  1  0  0  0  0
 10 12  1  0  0  0  0
 10 14  1  0  0  0  0
 11 17  1  0  0  0  0
 11 20  2  0  0  0  0
 12 18  1  0  0  0  0
 12 21  2  0  0  0  0
 14 15  1  0  0  0  0
 16 19  1  0  0  0  0
 16 22  2  0  0  0  0
  1 23  1  0  0  0  0
  2 24  1  0  0  0  0
  3 25  1  0  0  0  0
  7 26  1  0  0  0  0
  8 27  1  0  0  0  0
  9 28  1  0  0  0  0
 13 29  1  0  0  0  0
 13 30  1  0  0  0  0
 14 31  1  0  0  0  0
 15 32  1  0  0  0  0
M  CHG  4  16   1  17  -1  18  -1  19  -1
M  END
> <Hybrid2>
-4.245911598205566

> <Hybrid2>
-4.195996

$$$$
C06557463
  -OEChem-02152218493D

 32 34  0     0  0  0  0  0  0999 V2000
    9.3966  -25.5471   -9.8345 C   0  0  0  0  0  0  0  0  0  0  0  0
    8.2355  -26.1885   -9.3408 C   0  0  0  0  0  0  0  0  0  0  0  0
   11.7242  -25.8899  -12.1349 C   0  0  0  0  0  0  0  0  0  0  0  0
   12.5599  -27.2674  -10.3347 C   0  0  0  0  0  0  0  0  0  0  0  0
   14.0305  -26.6096  -12.1352 C   0  0  0  0  0  0  0  0  0  0  0  0
    6.1395  -30.8962   -8.0996 C   0  0  0  0  0  0  0  0  0  0  0  0
    4.3128  -29.7677   -8.4143 C   0  0  0  0  0  0  0  0  0  0  0  0
   11.5126  -26.5683  -10.9347 C   0  0  0  0  0  0  0  0  0  0  0  0
   12.9831  -25.9105  -12.7352 C   0  0  0  0  0  0  0  0  0  0  0  0
   13.8189  -27.2880  -10.9350 C   0  0  0  0  0  0  0  0  0  0  0  0
   10.2106  -26.5468  -10.3139 C   0  0  0  0  0  0  0  0  0  0  0  0
    8.4227  -27.5345   -9.5540 C   0  0  0  0  0  0  0  0  0  0  0  0
    7.5994  -28.6589   -9.2655 C   0  0  0  0  0  0  0  0  0  0  0  0
   13.2061  -25.1953  -14.0021 C   0  0  0  0  0  0  0  0  0  0  0  0
   14.9243  -28.0261  -10.3025 C   0  0  0  0  0  0  0  0  0  0  0  0
    5.1307  -31.7117   -7.8905 N   0  0  0  0  0  0  0  0  0  0  0  0
    3.9686  -30.9938   -8.0907 N   0  0  0  0  0  0  0  0  0  0  0  0
    6.4129  -28.5411   -8.7222 N   0  0  0  0  0  0  0  0  0  0  0  0
    5.6705  -29.6615   -8.4318 N   0  0  0  0  0  0  0  0  0  0  0  0
   14.3779  -25.2299  -14.5354 O   0  5  0  0  0  0  0  0  0  0  0  0
   16.0765  -28.0293  -10.8778 O   0  5  0  0  0  0  0  0  0  0  0  0
   12.2223  -24.5580  -14.5356 O   0  0  0  0  0  0  0  0  0  0  0  0
   14.7027  -28.6447   -9.1949 O   0  0  0  0  0  0  0  0  0  0  0  0
    9.6243  -27.7613  -10.1468 O   0  0  0  0  0  0  0  0  0  0  0  0
    9.6092  -24.4875   -9.8369 H   0  0  0  0  0  0  0  0  0  0  0  0
    7.3723  -25.7234   -8.8860 H   0  0  0  0  0  0  0  0  0  0  0  0
   10.9102  -25.3430  -12.6071 H   0  0  0  0  0  0  0  0  0  0  0  0
   12.4004  -27.7977   -9.3980 H   0  0  0  0  0  0  0  0  0  0  0  0
   15.0119  -26.6263  -12.6041 H   0  0  0  0  0  0  0  0  0  0  0  0
    7.1903  -31.1383   -8.0259 H   0  0  0  0  0  0  0  0  0  0  0  0
    3.6446  -28.9483   -8.6377 H   0  0  0  0  0  0  0  0  0  0  0  0
    7.9944  -29.6663   -9.5464 H   0  0  0  0  0  0  0  0  0  0  0  0
  1  2  1  0  0  0  0
  1 11  2  0  0  0  0
  2 12  2  0  0  0  0
  3  8  1  0  0  0  0
  3  9  2  0  0  0  0
  4  8  2  0  0  0  0
  4 10  1  0  0  0  0
  5  9  1  0  0  0  0
  5 10  2  0  0  0  0
  6 16  2  0  0  0  0
  6 19  1  0  0  0  0
  7 17  2  0  0  0  0
  7 19  1  0  0  0  0
  8 11  1  0  0  0  0
  9 14  1  0  0  0  0
 10 15  1  0  0  0  0
 11 24  1  0  0  0  0
 12 13  1  0  0  0  0
 12 24  1  0  0  0  0
 13 18  2  0  0  0  0
 14 20  1  0  0  0  0
 14 22  2  0  0  0  0
 15 21  1  0  0  0  0
 15 23  2  0  0  0  0
 16 17  1  0  0  0  0
 18 19  1  0  0  0  0
  1 25  1  0  0  0  0
  2 26  1  0  0  0  0
  3 27  1  0  0  0  0
  4 28  1  0  0  0  0
  5 29  1  0  0  0  0
  6 30  1  0  0  0  0
  7 31  1  0  0  0  0
 13 32  1  0  0  0  0
M  CHG  2  20  -1  21  -1
M  END
> <Hybrid2>
-4.090389728546143

> <Hybrid2>
-4.090390

$$$$
C06557463
  -OEChem-02152218493D

 32 34  0     0  0  0  0  0  0999 V2000
    8.8829  -25.4701   -9.9213 C   0  0  0  0  0  0  0  0  0  0  0  0
    7.7218  -26.1115   -9.4276 C   0  0  0  0  0  0  0  0  0  0  0  0
   11.2105  -25.8128  -12.2218 C   0  0  0  0  0  0  0  0  0  0  0  0
   12.0463  -27.1903  -10.4215 C   0  0  0  0  0  0  0  0  0  0  0  0
   13.5168  -26.5325  -12.2221 C   0  0  0  0  0  0  0  0  0  0  0  0
    5.6258  -30.8191   -8.1864 C   0  0  0  0  0  0  0  0  0  0  0  0
    3.7992  -29.6907   -8.5011 C   0  0  0  0  0  0  0  0  0  0  0  0
   10.9989  -26.4913  -11.0216 C   0  0  0  0  0  0  0  0  0  0  0  0
   12.4695  -25.8335  -12.8221 C   0  0  0  0  0  0  0  0  0  0  0  0
   13.3053  -27.2110  -11.0218 C   0  0  0  0  0  0  0  0  0  0  0  0
    9.6970  -26.4698  -10.4007 C   0  0  0  0  0  0  0  0  0  0  0  0
    7.9091  -27.4574   -9.6408 C   0  0  0  0  0  0  0  0  0  0  0  0
    7.0858  -28.5819   -9.3524 C   0  0  0  0  0  0  0  0  0  0  0  0
   12.6925  -25.1182  -14.0889 C   0  0  0  0  0  0  0  0  0  0  0  0
   14.4106  -27.9491  -10.3894 C   0  0  0  0  0  0  0  0  0  0  0  0
    4.6171  -31.6347   -7.9774 N   0  0  0  0  0  0  0  0  0  0  0  0
    3.4549  -30.9168   -8.1775 N   0  0  0  0  0  0  0  0  0  0  0  0
    5.8992  -28.4640   -8.8091 N   0  0  0  0  0  0  0  0  0  0  0  0
    5.1568  -29.5845   -8.5186 N   0  0  0  0  0  0  0  0  0  0  0  0
   13.8643  -25.1528  -14.6222 O   0  5  0  0  0  0  0  0  0  0  0  0
   15.5628  -27.9523  -10.9646 O   0  5  0  0  0  0  0  0  0  0  0  0
   11.7086  -24.4810  -14.6224 O   0  0  0  0  0  0  0  0  0  0  0  0
   14.1891  -28.5677   -9.2817 O   0  0  0  0  0  0  0  0  0  0  0  0
    9.1106  -27.6842  -10.2336 O   0  0  0  0  0  0  0  0  0  0  0  0
    9.0956  -24.4105   -9.9238 H   0  0  0  0  0  0  0  0  0  0  0  0
    6.8587  -25.6464   -8.9728 H   0  0  0  0  0  0  0  0  0  0  0  0
   10.3966  -25.2659  -12.6940 H   0  0  0  0  0  0  0  0  0  0  0  0
   11.8868  -27.7207   -9.4848 H   0  0  0  0  0  0  0  0  0  0  0  0
   14.4983  -26.5493  -12.6909 H   0  0  0  0  0  0  0  0  0  0  0  0
    6.6767  -31.0613   -8.1127 H   0  0  0  0  0  0  0  0  0  0  0  0
    3.1310  -28.8713   -8.7245 H   0  0  0  0  0  0  0  0  0  0  0  0
    7.4807  -29.5893   -9.6332 H   0  0  0  0  0  0  0  0  0  0  0  0
  1  2  1  0  0  0  0
  1 11  2  0  0  0  0
  2 12  2  0  0  0  0
  3  8  1  0  0  0  0
  3  9  2  0  0  0  0
  4  8  2  0  0  0  0
  4 10  1  0  0  0  0
  5  9  1  0  0  0  0
  5 10  2  0  0  0  0
  6 16  2  0  0  0  0
  6 19  1  0  0  0  0
  7 17  2  0  0  0  0
  7 19  1  0  0  0  0
  8 11  1  0  0  0  0
  9 14  1  0  0  0  0
 10 15  1  0  0  0  0
 11 24  1  0  0  0  0
 12 13  1  0  0  0  0
 12 24  1  0  0  0  0
 13 18  2  0  0  0  0
 14 20  1  0  0  0  0
 14 22  2  0  0  0  0
 15 21  1  0  0  0  0
 15 23  2  0  0  0  0
 16 17  1  0  0  0  0
 18 19  1  0  0  0  0
  1 25  1  0  0  0  0
  2 26  1  0  0  0  0
  3 27  1  0  0  0  0
  4 28  1  0  0  0  0
  5 29  1  0  0  0  0
  6 30  1  0  0  0  0
  7 31  1  0  0  0  0
 13 32  1  0  0  0  0
M  CHG  2  20  -1  21  -1
M  END
> <Hybrid2>
-4.090389728546143

> <Hybrid2>
-3.370722

$$$$
C08990732
  -OEChem-02152218493D

 37 39  0     0  0  0  0  0  0999 V2000
    3.6747  -26.4472   -9.3097 C   0  0  0  0  0  0  0  0  0  0  0  0
    4.5179  -25.4331   -9.7843 C   0  0  0  0  0  0  0  0  0  0  0  0
   14.3154  -28.0575   -9.3117 C   0  0  0  0  0  0  0  0  0  0  0  0
   15.0318  -28.1290  -10.5064 C   0  0  0  0  0  0  0  0  0  0  0  0
    4.1941  -27.6967   -8.9727 C   0  0  0  0  0  0  0  0  0  0  0  0
    5.8914  -25.6533   -9.9292 C   0  0  0  0  0  0  0  0  0  0  0  0
   13.0259  -27.5257   -9.3024 C   0  0  0  0  0  0  0  0  0  0  0  0
   14.4587  -27.6685  -11.6918 C   0  0  0  0  0  0  0  0  0  0  0  0
    5.5570  -27.9066   -9.1191 C   0  0  0  0  0  0  0  0  0  0  0  0
    6.4001  -26.8991   -9.5920 C   0  0  0  0  0  0  0  0  0  0  0  0
   12.4528  -27.0652  -10.4878 C   0  0  0  0  0  0  0  0  0  0  0  0
   13.1692  -27.1366  -11.6826 C   0  0  0  0  0  0  0  0  0  0  0  0
    8.8328  -26.6386  -10.0675 C   0  0  0  0  0  0  0  0  0  0  0  0
    6.3101  -29.1606   -8.8174 C   0  0  0  0  0  0  0  0  0  0  0  0
    7.7474  -28.7696   -9.1778 C   0  0  0  0  0  0  0  0  0  0  0  0
   10.1430  -27.3892  -10.0238 C   0  0  0  0  0  0  0  0  0  0  0  0
    7.7292  -27.3679   -9.6463 N   0  0  0  0  0  0  0  0  0  0  0  0
   13.4994  -26.7736  -14.3268 O   0  5  0  0  0  0  0  0  0  0  0  0
   11.1775  -27.3802  -13.4612 O   0  5  0  0  0  0  0  0  0  0  0  0
    8.8201  -25.4711  -10.4581 O   0  0  0  0  0  0  0  0  0  0  0  0
   12.1483  -25.0573  -12.9928 O   0  0  0  0  0  0  0  0  0  0  0  0
   11.1817  -26.5417  -10.4666 O   0  0  0  0  0  0  0  0  0  0  0  0
   12.4626  -26.5580  -13.1969 P   0  0  0  0  0  0  0  0  0  0  0  0
    2.6102  -26.2573   -9.2041 H   0  0  0  0  0  0  0  0  0  0  0  0
    4.0982  -24.4644  -10.0431 H   0  0  0  0  0  0  0  0  0  0  0  0
   14.7623  -28.4152   -8.3887 H   0  0  0  0  0  0  0  0  0  0  0  0
   16.0360  -28.5426  -10.5141 H   0  0  0  0  0  0  0  0  0  0  0  0
    3.5428  -28.4825   -8.6050 H   0  0  0  0  0  0  0  0  0  0  0  0
    6.5129  -24.8471  -10.2987 H   0  0  0  0  0  0  0  0  0  0  0  0
   12.4737  -27.4718   -8.3681 H   0  0  0  0  0  0  0  0  0  0  0  0
   15.0210  -27.7263  -12.6196 H   0  0  0  0  0  0  0  0  0  0  0  0
    6.2250  -29.4229   -7.7586 H   0  0  0  0  0  0  0  0  0  0  0  0
    5.9573  -29.9877   -9.4409 H   0  0  0  0  0  0  0  0  0  0  0  0
    8.4124  -28.8484   -8.3106 H   0  0  0  0  0  0  0  0  0  0  0  0
    8.1481  -29.4078   -9.9730 H   0  0  0  0  0  0  0  0  0  0  0  0
   10.0827  -28.2623  -10.6656 H   0  0  0  0  0  0  0  0  0  0  0  0
   10.3389  -27.6948   -9.0012 H   0  0  0  0  0  0  0  0  0  0  0  0
  1  2  1  0  0  0  0
  1  5  2  0  0  0  0
  2  6  2  0  0  0  0
  3  4  1  0  0  0  0
  3  7  2  0  0  0  0
  4  8  2  0  0  0  0
  5  9  1  0  0  0  0
  6 10  1  0  0  0  0
  7 11  1  0  0  0  0
  8 12  1  0  0  0  0
  9 10  2  0  0  0  0
  9 14  1  0  0  0  0
 10 17  1  0  0  0  0
 11 12  2  0  0  0  0
 11 22  1  0  0  0  0
 12 23  1  0  0  0  0
 13 16  1  0  0  0  0
 13 17  1  0  0  0  0
 13 20  2  0  0  0  0
 14 15  1  0  0  0  0
 15 17  1  0  0  0  0
 16 22  1  0  0  0  0
 18 23  1  0  0  0  0
 19 23  1  0  0  0  0
 21 23  2  0  0  0  0
  1 24  1  0  0  0  0
  2 25  1  0  0  0  0
  3 26  1  0  0  0  0
  4 27  1  0  0  0  0
  5 28  1  0  0  0  0
  6 29  1  0  0  0  0
  7 30  1  0  0  0  0
  8 31  1  0  0  0  0
 14 32  1  0  0  0  0
 14 33  1  0  0  0  0
 15 34  1  0  0  0  0
 15 35  1  0  0  0  0
 16 36  1  0  0  0  0
 16 37  1  0  0  0  0
M  CHG  2  18  -1  19  -1
M  END
> <Hybrid2>
-4.541159629821777

> <Hybrid2>
-4.541160

$$$$
C08990732
  -OEChem-02152218493D

 37 39  0     0  0  0  0  0  0999 V2000
    4.2693  -27.6140   -8.8399 C   0  0  0  0  0  0  0  0  0  0  0  0
    5.0281  -26.4473   -9.0065 C   0  0  0  0  0  0  0  0  0  0  0  0
   14.9885  -28.3765   -9.4197 C   0  0  0  0  0  0  0  0  0  0  0  0
   15.6707  -28.0458  -10.5905 C   0  0  0  0  0  0  0  0  0  0  0  0
    4.8809  -28.8663   -8.8874 C   0  0  0  0  0  0  0  0  0  0  0  0
    6.4081  -26.5155   -9.2232 C   0  0  0  0  0  0  0  0  0  0  0  0
   13.6673  -27.9655   -9.2426 C   0  0  0  0  0  0  0  0  0  0  0  0
   15.0320  -27.3039  -11.5840 C   0  0  0  0  0  0  0  0  0  0  0  0
    6.2496  -28.9250   -9.1026 C   0  0  0  0  0  0  0  0  0  0  0  0
    7.0087  -27.7651   -9.2694 C   0  0  0  0  0  0  0  0  0  0  0  0
   13.0286  -27.2236  -10.2361 C   0  0  0  0  0  0  0  0  0  0  0  0
   13.7109  -26.8928  -11.4069 C   0  0  0  0  0  0  0  0  0  0  0  0
    9.4028  -27.2017   -9.6729 C   0  0  0  0  0  0  0  0  0  0  0  0
    7.0935  -30.1544   -9.1876 C   0  0  0  0  0  0  0  0  0  0  0  0
    8.4897  -29.5723   -9.4328 C   0  0  0  0  0  0  0  0  0  0  0  0
   10.7608  -27.8353   -9.8634 C   0  0  0  0  0  0  0  0  0  0  0  0
    8.3638  -28.1001   -9.4716 N   0  0  0  0  0  0  0  0  0  0  0  0
   13.9343  -25.7547  -13.8334 O   0  5  0  0  0  0  0  0  0  0  0  0
   11.6857  -26.7536  -13.1589 O   0  5  0  0  0  0  0  0  0  0  0  0
    9.3004  -25.9753   -9.7057 O   0  0  0  0  0  0  0  0  0  0  0  0
   12.5138  -24.6026  -12.0429 O   0  0  0  0  0  0  0  0  0  0  0  0
   11.7266  -26.8227  -10.0501 O   0  0  0  0  0  0  0  0  0  0  0  0
   12.9208  -25.9524  -12.6793 P   0  0  0  0  0  0  0  0  0  0  0  0
    3.1983  -27.5408   -8.6727 H   0  0  0  0  0  0  0  0  0  0  0  0
    4.5371  -25.4784   -8.9670 H   0  0  0  0  0  0  0  0  0  0  0  0
   15.4865  -28.9533   -8.6458 H   0  0  0  0  0  0  0  0  0  0  0  0
   16.6996  -28.3652  -10.7288 H   0  0  0  0  0  0  0  0  0  0  0  0
    4.2950  -29.7702   -8.7584 H   0  0  0  0  0  0  0  0  0  0  0  0
    6.9629  -25.5938   -9.3477 H   0  0  0  0  0  0  0  0  0  0  0  0
   13.1419  -28.2255   -8.3277 H   0  0  0  0  0  0  0  0  0  0  0  0
   15.5679  -27.0488  -12.4940 H   0  0  0  0  0  0  0  0  0  0  0  0
    7.0588  -30.7183   -8.2505 H   0  0  0  0  0  0  0  0  0  0  0  0
    6.7774  -30.7882  -10.0217 H   0  0  0  0  0  0  0  0  0  0  0  0
    9.1849  -29.8508   -8.6331 H   0  0  0  0  0  0  0  0  0  0  0  0
    8.9073  -29.9212  -10.3836 H   0  0  0  0  0  0  0  0  0  0  0  0
   10.7390  -28.4865  -10.7314 H   0  0  0  0  0  0  0  0  0  0  0  0
   11.0081  -28.4096   -8.9766 H   0  0  0  0  0  0  0  0  0  0  0  0
  1  2  1  0  0  0  0
  1  5  2  0  0  0  0
  2  6  2  0  0  0  0
  3  4  1  0  0  0  0
  3  7  2  0  0  0  0
  4  8  2  0  0  0  0
  5  9  1  0  0  0  0
  6 10  1  0  0  0  0
  7 11  1  0  0  0  0
  8 12  1  0  0  0  0
  9 10  2  0  0  0  0
  9 14  1  0  0  0  0
 10 17  1  0  0  0  0
 11 12  2  0  0  0  0
 11 22  1  0  0  0  0
 12 23  1  0  0  0  0
 13 16  1  0  0  0  0
 13 17  1  0  0  0  0
 13 20  2  0  0  0  0
 14 15  1  0  0  0  0
 15 17  1  0  0  0  0
 16 22  1  0  0  0  0
 18 23  1  0  0  0  0
 19 23  1  0  0  0  0
 21 23  2  0  0  0  0
  1 24  1  0  0  0  0
  2 25  1  0  0  0  0
  3 26  1  0  0  0  0
  4 27  1  0  0  0  0
  5 28  1  0  0  0  0
  6 29  1  0  0  0  0
  7 30  1  0  0  0  0
  8 31  1  0  0  0  0
 14 32  1  0  0  0  0
 14 33  1  0  0  0  0
 15 34  1  0  0  0  0
 15 35  1  0  0  0  0
 16 36  1  0  0  0  0
 16 37  1  0  0  0  0
M  CHG  2  18  -1  19  -1
M  END
> <Hybrid2>
-4.541159629821777

> <Hybrid2>
-4.496874

$$$$
C05334170
  -OEChem-02152218493D

 33 34  0     0  0  0  0  0  0999 V2000
    8.4171  -28.4702   -9.6928 C   0  0  0  0  0  0  0  0  0  0  0  0
    7.8836  -26.1552   -9.2531 C   0  0  0  0  0  0  0  0  0  0  0  0
    7.2103  -28.8588   -9.1114 C   0  0  0  0  0  0  0  0  0  0  0  0
    6.6767  -26.5438   -8.6716 C   0  0  0  0  0  0  0  0  0  0  0  0
    8.7538  -27.1184   -9.7636 C   0  0  0  0  0  0  0  0  0  0  0  0
    6.3400  -27.8956   -8.6008 C   0  0  0  0  0  0  0  0  0  0  0  0
   13.6623  -26.2745  -11.7602 C   0  0  0  0  0  0  0  0  0  0  0  0
   14.1592  -27.4816  -11.3285 C   0  0  0  0  0  0  0  0  0  0  0  0
   12.0427  -27.2338  -10.7668 C   0  0  0  0  0  0  0  0  0  0  0  0
   14.4551  -25.2227  -12.5320 C   0  0  0  0  0  0  0  0  0  0  0  0
   15.5638  -28.0438  -11.5055 C   0  0  0  0  0  0  0  0  0  0  0  0
    4.7614  -29.6911   -7.9343 C   0  0  0  0  0  0  0  0  0  0  0  0
    4.2150  -27.2971   -7.4667 C   0  0  0  0  0  0  0  0  0  0  0  0
   12.3444  -26.1262  -11.4072 N   0  0  0  0  0  0  0  0  0  0  0  0
    9.9648  -26.7290  -10.3446 N   0  0  0  0  0  0  0  0  0  0  0  0
   10.8259  -27.6254  -10.1826 N   0  0  0  0  0  0  0  0  0  0  0  0
   13.1103  -28.0847  -10.6935 N   0  0  0  0  0  0  0  0  0  0  0  0
    5.1199  -28.2890   -8.0127 N   0  0  0  0  0  0  0  0  0  0  0  0
   15.0625  -24.3557  -11.8441 O   0  5  0  0  0  0  0  0  0  0  0  0
   15.7740  -28.7313  -12.5451 O   0  5  0  0  0  0  0  0  0  0  0  0
   14.4344  -25.3109  -13.7912 O   0  0  0  0  0  0  0  0  0  0  0  0
   16.4017  -27.7762  -10.5978 O   0  0  0  0  0  0  0  0  0  0  0  0
    9.0902  -29.2275  -10.0860 H   0  0  0  0  0  0  0  0  0  0  0  0
    8.1382  -25.0997   -9.3035 H   0  0  0  0  0  0  0  0  0  0  0  0
    6.9587  -29.9151   -9.0588 H   0  0  0  0  0  0  0  0  0  0  0  0
    6.0066  -25.7845   -8.2767 H   0  0  0  0  0  0  0  0  0  0  0  0
    3.7810  -29.7927   -7.4460 H   0  0  0  0  0  0  0  0  0  0  0  0
    4.7114  -30.1140   -8.9485 H   0  0  0  0  0  0  0  0  0  0  0  0
    5.5201  -30.2312   -7.3489 H   0  0  0  0  0  0  0  0  0  0  0  0
    3.3256  -27.7978   -7.0564 H   0  0  0  0  0  0  0  0  0  0  0  0
    4.7229  -26.7385   -6.6667 H   0  0  0  0  0  0  0  0  0  0  0  0
    3.9097  -26.6019   -8.2626 H   0  0  0  0  0  0  0  0  0  0  0  0
   13.1192  -28.9939  -10.2509 H   0  0  0  0  0  0  0  0  0  0  0  0
  1  3  2  0  0  0  0
  1  5  1  0  0  0  0
  2  4  1  0  0  0  0
  2  5  2  0  0  0  0
  3  6  1  0  0  0  0
  4  6  2  0  0  0  0
  5 15  1  0  0  0  0
  6 18  1  0  0  0  0
  7  8  2  0  0  0  0
  7 10  1  0  0  0  0
  7 14  1  0  0  0  0
  8 11  1  0  0  0  0
  8 17  1  0  0  0  0
  9 14  2  0  0  0  0
  9 16  1  0  0  0  0
  9 17  1  0  0  0  0
 10 19  1  0  0  0  0
 10 21  2  0  0  0  0
 11 20  1  0  0  0  0
 11 22  2  0  0  0  0
 12 18  1  0  0  0  0
 13 18  1  0  0  0  0
 15 16  2  0  0  0  0
  1 23  1  0  0  0  0
  2 24  1  0  0  0  0
  3 25  1  0  0  0  0
  4 26  1  0  0  0  0
 12 27  1  0  0  0  0
 12 28  1  0  0  0  0
 12 29  1  0  0  0  0
 13 30  1  0  0  0  0
 13 31  1  0  0  0  0
 13 32  1  0  0  0  0
 17 33  1  0  0  0  0
M  CHG  2  19  -1  20  -1
M  END
> <Hybrid2>
-2.9614758491516113

> <Hybrid2>
-2.961476

$$$$
C05334170
  -OEChem-02152218493D

 33 34  0     0  0  0  0  0  0999 V2000
    7.7742  -28.6419   -9.8625 C   0  0  0  0  0  0  0  0  0  0  0  0
    7.3229  -26.4266   -9.0106 C   0  0  0  0  0  0  0  0  0  0  0  0
    6.6318  -29.1211   -9.2215 C   0  0  0  0  0  0  0  0  0  0  0  0
    6.1804  -26.9058   -8.3696 C   0  0  0  0  0  0  0  0  0  0  0  0
    8.1198  -27.2946   -9.7570 C   0  0  0  0  0  0  0  0  0  0  0  0
    5.8349  -28.2531   -8.4751 C   0  0  0  0  0  0  0  0  0  0  0  0
   12.7390  -26.2461  -12.3057 C   0  0  0  0  0  0  0  0  0  0  0  0
   13.4407  -27.1455  -11.5380 C   0  0  0  0  0  0  0  0  0  0  0  0
   11.2796  -27.2397  -11.1168 C   0  0  0  0  0  0  0  0  0  0  0  0
   13.3549  -25.2929  -13.3266 C   0  0  0  0  0  0  0  0  0  0  0  0
   14.9421  -27.4017  -11.5168 C   0  0  0  0  0  0  0  0  0  0  0  0
    4.3129  -30.1365   -7.9305 C   0  0  0  0  0  0  0  0  0  0  0  0
    3.8528  -27.8475   -7.0375 C   0  0  0  0  0  0  0  0  0  0  0  0
   11.3943  -26.3095  -12.0385 N   0  0  0  0  0  0  0  0  0  0  0  0
    9.2664  -26.8147  -10.3978 N   0  0  0  0  0  0  0  0  0  0  0  0
   10.1276  -27.7224  -10.4725 N   0  0  0  0  0  0  0  0  0  0  0  0
   12.4924  -27.7742  -10.7812 N   0  0  0  0  0  0  0  0  0  0  0  0
    4.6800  -28.7382   -7.8270 N   0  0  0  0  0  0  0  0  0  0  0  0
   12.5571  -24.5336  -13.9438 O   0  5  0  0  0  0  0  0  0  0  0  0
   15.3800  -28.2799  -12.3135 O   0  5  0  0  0  0  0  0  0  0  0  0
   14.6086  -25.3466  -13.4654 O   0  0  0  0  0  0  0  0  0  0  0  0
   15.6245  -26.7151  -10.7042 O   0  0  0  0  0  0  0  0  0  0  0  0
    8.3906  -29.3258  -10.4400 H   0  0  0  0  0  0  0  0  0  0  0  0
    7.5850  -25.3754   -8.9225 H   0  0  0  0  0  0  0  0  0  0  0  0
    6.3730  -30.1735   -9.3080 H   0  0  0  0  0  0  0  0  0  0  0  0
    5.5673  -26.2202   -7.7904 H   0  0  0  0  0  0  0  0  0  0  0  0
    3.3895  -30.3169   -7.3606 H   0  0  0  0  0  0  0  0  0  0  0  0
    4.1481  -30.3949   -8.9869 H   0  0  0  0  0  0  0  0  0  0  0  0
    5.1228  -30.7592   -7.5227 H   0  0  0  0  0  0  0  0  0  0  0  0
    3.0060  -28.4095   -6.6165 H   0  0  0  0  0  0  0  0  0  0  0  0
    4.4515  -27.4197   -6.2199 H   0  0  0  0  0  0  0  0  0  0  0  0
    3.4731  -27.0370   -7.6769 H   0  0  0  0  0  0  0  0  0  0  0  0
   12.6552  -28.5022  -10.0985 H   0  0  0  0  0  0  0  0  0  0  0  0
  1  3  2  0  0  0  0
  1  5  1  0  0  0  0
  2  4  1  0  0  0  0
  2  5  2  0  0  0  0
  3  6  1  0  0  0  0
  4  6  2  0  0  0  0
  5 15  1  0  0  0  0
  6 18  1  0  0  0  0
  7  8  2  0  0  0  0
  7 10  1  0  0  0  0
  7 14  1  0  0  0  0
  8 11  1  0  0  0  0
  8 17  1  0  0  0  0
  9 14  2  0  0  0  0
  9 16  1  0  0  0  0
  9 17  1  0  0  0  0
 10 19  1  0  0  0  0
 10 21  2  0  0  0  0
 11 20  1  0  0  0  0
 11 22  2  0  0  0  0
 12 18  1  0  0  0  0
 13 18  1  0  0  0  0
 15 16  2  0  0  0  0
  1 23  1  0  0  0  0
  2 24  1  0  0  0  0
  3 25  1  0  0  0  0
  4 26  1  0  0  0  0
 12 27  1  0  0  0  0
 12 28  1  0  0  0  0
 12 29  1  0  0  0  0
 13 30  1  0  0  0  0
 13 31  1  0  0  0  0
 13 32  1  0  0  0  0
 17 33  1  0  0  0  0
M  CHG  2  19  -1  20  -1
M  END
> <Hybrid2>
-2.9614758491516113

> <Hybrid2>
-2.190463

$$$$
C13624745
  -OEChem-02152218493D

 39 40  0     0  0  0  0  0  0999 V2000
   14.4875  -27.8708   -9.1647 C   0  0  0  0  0  0  0  0  0  0  0  0
   15.0007  -27.9747  -10.4575 C   0  0  0  0  0  0  0  0  0  0  0  0
   13.1937  -27.3894   -8.9644 C   0  0  0  0  0  0  0  0  0  0  0  0
   14.2201  -27.5971  -11.5502 C   0  0  0  0  0  0  0  0  0  0  0  0
   12.4132  -27.0118  -10.0571 C   0  0  0  0  0  0  0  0  0  0  0  0
   12.9263  -27.1157  -11.3499 C   0  0  0  0  0  0  0  0  0  0  0  0
    8.8126  -27.1240   -9.6614 C   0  0  0  0  0  0  0  0  0  0  0  0
    3.6702  -28.2405   -8.3751 C   0  0  0  0  0  0  0  0  0  0  0  0
    4.3293  -29.2577   -9.3024 C   0  0  0  0  0  0  0  0  0  0  0  0
    4.2846  -26.8526   -8.5339 C   0  0  0  0  0  0  0  0  0  0  0  0
    5.8453  -29.2907   -9.1161 C   0  0  0  0  0  0  0  0  0  0  0  0
    5.8005  -26.8829   -8.3460 C   0  0  0  0  0  0  0  0  0  0  0  0
    6.4594  -27.8970   -9.2876 C   0  0  0  0  0  0  0  0  0  0  0  0
   10.2283  -27.4010   -9.2022 C   0  0  0  0  0  0  0  0  0  0  0  0
    7.8971  -27.9526   -9.0302 N   0  0  0  0  0  0  0  0  0  0  0  0
   12.8009  -26.8741  -14.0255 O   0  5  0  0  0  0  0  0  0  0  0  0
   10.6832  -27.5256  -12.7607 O   0  5  0  0  0  0  0  0  0  0  0  0
    8.5409  -26.2625  -10.4932 O   0  0  0  0  0  0  0  0  0  0  0  0
   11.6088  -25.1462  -12.5613 O   0  0  0  0  0  0  0  0  0  0  0  0
   11.1398  -26.5374   -9.8477 O   0  0  0  0  0  0  0  0  0  0  0  0
   11.9546  -26.6420  -12.7495 P   0  0  0  0  0  0  0  0  0  0  0  0
   15.0959  -28.1638   -8.3141 H   0  0  0  0  0  0  0  0  0  0  0  0
   16.0082  -28.3491  -10.6141 H   0  0  0  0  0  0  0  0  0  0  0  0
   12.8005  -27.3098   -7.9547 H   0  0  0  0  0  0  0  0  0  0  0  0
   14.6246  -27.6799  -12.5550 H   0  0  0  0  0  0  0  0  0  0  0  0
    2.5954  -28.1939   -8.5833 H   0  0  0  0  0  0  0  0  0  0  0  0
    3.7806  -28.5708   -7.3348 H   0  0  0  0  0  0  0  0  0  0  0  0
    3.9131  -30.2534   -9.1122 H   0  0  0  0  0  0  0  0  0  0  0  0
    4.0955  -29.0069  -10.3444 H   0  0  0  0  0  0  0  0  0  0  0  0
    4.0488  -26.4609   -9.5310 H   0  0  0  0  0  0  0  0  0  0  0  0
    3.8370  -26.1660   -7.8066 H   0  0  0  0  0  0  0  0  0  0  0  0
    6.0757  -29.6819   -8.1166 H   0  0  0  0  0  0  0  0  0  0  0  0
    6.2811  -29.9865   -9.8431 H   0  0  0  0  0  0  0  0  0  0  0  0
    6.2050  -25.8801   -8.5293 H   0  0  0  0  0  0  0  0  0  0  0  0
    6.0278  -27.1371   -7.3026 H   0  0  0  0  0  0  0  0  0  0  0  0
    6.3512  -27.5696  -10.3174 H   0  0  0  0  0  0  0  0  0  0  0  0
   10.2968  -27.2341   -8.1230 H   0  0  0  0  0  0  0  0  0  0  0  0
   10.4981  -28.4387   -9.4215 H   0  0  0  0  0  0  0  0  0  0  0  0
    8.2423  -28.6309   -8.3565 H   0  0  0  0  0  0  0  0  0  0  0  0
  1  2  1  0  0  0  0
  1  3  2  0  0  0  0
  2  4  2  0  0  0  0
  3  5  1  0  0  0  0
  4  6  1  0  0  0  0
  5  6  2  0  0  0  0
  5 20  1  0  0  0  0
  6 21  1  0  0  0  0
  7 14  1  0  0  0  0
  7 15  1  0  0  0  0
  7 18  2  0  0  0  0
  8  9  1  0  0  0  0
  8 10  1  0  0  0  0
  9 11  1  0  0  0  0
 10 12  1  0  0  0  0
 11 13  1  0  0  0  0
 12 13  1  0  0  0  0
 13 15  1  0  0  0  0
 14 20  1  0  0  0  0
 16 21  1  0  0  0  0
 17 21  1  0  0  0  0
 19 21  2  0  0  0  0
  1 22  1  0  0  0  0
  2 23  1  0  0  0  0
  3 24  1  0  0  0  0
  4 25  1  0  0  0  0
  8 26  1  0  0  0  0
  8 27  1  0  0  0  0
  9 28  1  0  0  0  0
  9 29  1  0  0  0  0
 10 30  1  0  0  0  0
 10 31  1  0  0  0  0
 11 32  1  0  0  0  0
 11 33  1  0  0  0  0
 12 34  1  0  0  0  0
 12 35  1  0  0  0  0
 13 36  1  0  0  0  0
 14 37  1  0  0  0  0
 14 38  1  0  0  0  0
 15 39  1  0  0  0  0
M  CHG  2  16  -1  17  -1
M  END
> <Hybrid2>
-2.102989435195923

> <Hybrid2>
-2.102989

$$$$
C13624745
  -OEChem-02152218493D

 39 40  0     0  0  0  0  0  0999 V2000
   14.6455  -27.5784  -10.2922 C   0  0  0  0  0  0  0  0  0  0  0  0
   15.0047  -27.7271  -11.6318 C   0  0  0  0  0  0  0  0  0  0  0  0
   13.3591  -27.1550   -9.9579 C   0  0  0  0  0  0  0  0  0  0  0  0
   14.0776  -27.4522  -12.6371 C   0  0  0  0  0  0  0  0  0  0  0  0
   12.4320  -26.8801  -10.9632 C   0  0  0  0  0  0  0  0  0  0  0  0
   12.7913  -27.0287  -12.3028 C   0  0  0  0  0  0  0  0  0  0  0  0
    8.9180  -27.1584  -10.1222 C   0  0  0  0  0  0  0  0  0  0  0  0
    4.0420  -28.4692   -8.1596 C   0  0  0  0  0  0  0  0  0  0  0  0
    4.6434  -29.5005   -9.1102 C   0  0  0  0  0  0  0  0  0  0  0  0
    4.5504  -27.0621   -8.4603 C   0  0  0  0  0  0  0  0  0  0  0  0
    6.1701  -29.4437   -9.1106 C   0  0  0  0  0  0  0  0  0  0  0  0
    6.0770  -27.0025   -8.4593 C   0  0  0  0  0  0  0  0  0  0  0  0
    6.6763  -28.0314   -9.4242 C   0  0  0  0  0  0  0  0  0  0  0  0
   10.3925  -27.3350   -9.8279 C   0  0  0  0  0  0  0  0  0  0  0  0
    8.1353  -27.9974   -9.3434 N   0  0  0  0  0  0  0  0  0  0  0  0
   12.3311  -26.9432  -14.9512 O   0  5  0  0  0  0  0  0  0  0  0  0
   10.4228  -27.6332  -13.4050 O   0  5  0  0  0  0  0  0  0  0  0  0
    8.4982  -26.3598  -10.9552 O   0  0  0  0  0  0  0  0  0  0  0  0
   11.2243  -25.2013  -13.4374 O   0  0  0  0  0  0  0  0  0  0  0  0
   11.1674  -26.4621  -10.6220 O   0  0  0  0  0  0  0  0  0  0  0  0
   11.6322  -26.6851  -13.5936 P   0  0  0  0  0  0  0  0  0  0  0  0
   15.3679  -27.7915   -9.5097 H   0  0  0  0  0  0  0  0  0  0  0  0
   16.0063  -28.0563  -11.8927 H   0  0  0  0  0  0  0  0  0  0  0  0
   13.0861  -27.0401   -8.9125 H   0  0  0  0  0  0  0  0  0  0  0  0
   14.3625  -27.5694  -13.6789 H   0  0  0  0  0  0  0  0  0  0  0  0
    2.9491  -28.4906   -8.2359 H   0  0  0  0  0  0  0  0  0  0  0  0
    4.2959  -28.7349   -7.1259 H   0  0  0  0  0  0  0  0  0  0  0  0
    4.3123  -30.5045   -8.8218 H   0  0  0  0  0  0  0  0  0  0  0  0
    4.2718  -29.3206  -10.1265 H   0  0  0  0  0  0  0  0  0  0  0  0
    4.1738  -26.7392   -9.4388 H   0  0  0  0  0  0  0  0  0  0  0  0
    4.1539  -26.3604   -7.7178 H   0  0  0  0  0  0  0  0  0  0  0  0
    6.5416  -29.7661   -8.1292 H   0  0  0  0  0  0  0  0  0  0  0  0
    6.5554  -30.1551   -9.8509 H   0  0  0  0  0  0  0  0  0  0  0  0
    6.3970  -25.9917   -8.7397 H   0  0  0  0  0  0  0  0  0  0  0  0
    6.4426  -27.1860   -7.4406 H   0  0  0  0  0  0  0  0  0  0  0  0
    6.4261  -27.7680  -10.4476 H   0  0  0  0  0  0  0  0  0  0  0  0
   10.5803  -27.1050   -8.7747 H   0  0  0  0  0  0  0  0  0  0  0  0
   10.6944  -28.3678  -10.0278 H   0  0  0  0  0  0  0  0  0  0  0  0
    8.5982  -28.6182   -8.6851 H   0  0  0  0  0  0  0  0  0  0  0  0
  1  2  1  0  0  0  0
  1  3  2  0  0  0  0
  2  4  2  0  0  0  0
  3  5  1  0  0  0  0
  4  6  1  0  0  0  0
  5  6  2  0  0  0  0
  5 20  1  0  0  0  0
  6 21  1  0  0  0  0
  7 14  1  0  0  0  0
  7 15  1  0  0  0  0
  7 18  2  0  0  0  0
  8  9  1  0  0  0  0
  8 10  1  0  0  0  0
  9 11  1  0  0  0  0
 10 12  1  0  0  0  0
 11 13  1  0  0  0  0
 12 13  1  0  0  0  0
 13 15  1  0  0  0  0
 14 20  1  0  0  0  0
 16 21  1  0  0  0  0
 17 21  1  0  0  0  0
 19 21  2  0  0  0  0
  1 22  1  0  0  0  0
  2 23  1  0  0  0  0
  3 24  1  0  0  0  0
  4 25  1  0  0  0  0
  8 26  1  0  0  0  0
  8 27  1  0  0  0  0
  9 28  1  0  0  0  0
  9 29  1  0  0  0  0
 10 30  1  0  0  0  0
 10 31  1  0  0  0  0
 11 32  1  0  0  0  0
 11 33  1  0  0  0  0
 12 34  1  0  0  0  0
 12 35  1  0  0  0  0
 13 36  1  0  0  0  0
 14 37  1  0  0  0  0
 14 38  1  0  0  0  0
 15 39  1  0  0  0  0
M  CHG  2  16  -1  17  -1
M  END
> <Hybrid2>
-2.102989435195923

> <Hybrid2>
-2.015781

$$$$
C20327410
  -OEChem-02152218493D

 35 37  0     1  0  0  0  0  0999 V2000
    7.7771  -24.3691   -9.5379 C   0  0  0  0  0  0  0  0  0  0  0  0
    8.0800  -27.0095   -9.7868 C   0  0  0  0  0  0  0  0  0  0  0  0
    8.0063  -28.4364   -9.7171 C   0  0  0  0  0  0  0  0  0  0  0  0
    7.0174  -28.8725   -8.8622 C   0  0  0  0  0  0  0  0  0  0  0  0
    8.9024  -26.1318  -10.5003 C   0  0  0  0  0  0  0  0  0  0  0  0
    7.1251  -26.4244   -8.9655 C   0  0  0  0  0  0  0  0  0  0  0  0
    6.6924  -30.3441   -8.5755 C   0  0  0  0  0  0  0  0  0  0  0  0
   13.6606  -26.7070  -11.5090 C   0  0  0  0  0  0  0  0  0  0  0  0
   10.5503  -27.8737  -13.3716 C   0  0  0  0  0  0  0  0  0  0  0  0
   12.0007  -27.4614  -13.1473 C   0  0  0  0  0  0  0  0  0  0  0  0
    9.5777  -26.8600  -12.7695 C   0  0  0  0  0  0  0  0  0  0  0  0
   11.2888  -26.2296  -11.0645 C   0  0  0  0  0  0  0  0  0  0  0  0
   12.2530  -27.2507  -11.6606 C   0  0  2  0  0  0  0  0  0  0  0  0
    8.8903  -29.3598  -10.4751 C   0  0  0  0  0  0  0  0  0  0  0  0
    8.7455  -24.7969  -10.3713 N   0  0  0  0  0  0  0  0  0  0  0  0
    6.9252  -25.1023   -8.7992 N   0  0  0  0  0  0  0  0  0  0  0  0
    9.8990  -26.6100  -11.3595 N   0  0  0  0  0  0  0  0  0  0  0  0
    5.7538  -30.5600   -7.7644 O   0  5  0  0  0  0  0  0  0  0  0  0
   13.8777  -25.6050  -12.0849 O   0  5  0  0  0  0  0  0  0  0  0  0
    7.3950  -31.1978   -9.1779 O   0  0  0  0  0  0  0  0  0  0  0  0
   14.4367  -27.4301  -10.8235 O   0  0  0  0  0  0  0  0  0  0  0  0
    6.1741  -27.5719   -8.1390 S   0  0  0  0  0  0  0  0  0  0  0  0
    7.6722  -23.2931   -9.4516 H   0  0  0  0  0  0  0  0  0  0  0  0
   10.3509  -27.9787  -14.4439 H   0  0  0  0  0  0  0  0  0  0  0  0
   10.3756  -28.8567  -12.9218 H   0  0  0  0  0  0  0  0  0  0  0  0
   12.6556  -28.2501  -13.5123 H   0  0  0  0  0  0  0  0  0  0  0  0
   12.2138  -26.5567  -13.7109 H   0  0  0  0  0  0  0  0  0  0  0  0
    9.6410  -25.9281  -13.3472 H   0  0  0  0  0  0  0  0  0  0  0  0
    8.5477  -27.2323  -12.8573 H   0  0  0  0  0  0  0  0  0  0  0  0
   11.4308  -26.1816   -9.9812 H   0  0  0  0  0  0  0  0  0  0  0  0
   11.5000  -25.2398  -11.4787 H   0  0  0  0  0  0  0  0  0  0  0  0
   12.2016  -28.1767  -11.1328 H   0  0  0  0  0  0  0  0  0  0  0  0
    9.7919  -29.5970   -9.8938 H   0  0  0  0  0  0  0  0  0  0  0  0
    8.3782  -30.3028  -10.7150 H   0  0  0  0  0  0  0  0  0  0  0  0
    9.2047  -28.9215  -11.4335 H   0  0  0  0  0  0  0  0  0  0  0  0
  1 15  1  0  0  0  0
  1 16  2  0  0  0  0
  2  3  1  0  0  0  0
  2  5  1  0  0  0  0
  2  6  2  0  0  0  0
  3  4  2  0  0  0  0
  3 14  1  0  0  0  0
  4  7  1  0  0  0  0
  4 22  1  0  0  0  0
  5 15  2  0  0  0  0
  5 17  1  0  0  0  0
  6 16  1  0  0  0  0
  6 22  1  0  0  0  0
  7 18  1  0  0  0  0
  7 20  2  0  0  0  0
  8 13  1  0  0  0  0
  8 19  1  0  0  0  0
  8 21  2  0  0  0  0
  9 10  1  0  0  0  0
  9 11  1  0  0  0  0
 10 13  1  0  0  0  0
 11 17  1  0  0  0  0
 12 13  1  0  0  0  0
 12 17  1  0  0  0  0
  1 23  1  0  0  0  0
  9 24  1  0  0  0  0
  9 25  1  0  0  0  0
 10 26  1  0  0  0  0
 10 27  1  0  0  0  0
 11 28  1  0  0  0  0
 11 29  1  0  0  0  0
 12 30  1  0  0  0  0
 12 31  1  0  0  0  0
 13 32  1  0  0  0  0
 14 33  1  0  0  0  0
 14 34  1  0  0  0  0
 14 35  1  0  0  0  0
M  CHG  2  18  -1  19  -1
M  END
> <Hybrid2>
-3.2325525283813477

> <Hybrid2>
-3.232553

$$$$
C20327410
  -OEChem-02152218493D

 35 37  0     1  0  0  0  0  0999 V2000
    8.7646  -22.6171  -10.9324 C   0  0  0  0  0  0  0  0  0  0  0  0
    8.6793  -25.2484  -10.4913 C   0  0  0  0  0  0  0  0  0  0  0  0
    8.3923  -26.5855  -10.0717 C   0  0  0  0  0  0  0  0  0  0  0  0
    7.3242  -26.6482   -9.2033 C   0  0  0  0  0  0  0  0  0  0  0  0
    9.6442  -24.7041  -11.3449 C   0  0  0  0  0  0  0  0  0  0  0  0
    7.7974  -24.3474   -9.9088 C   0  0  0  0  0  0  0  0  0  0  0  0
    6.7757  -27.9380   -8.5798 C   0  0  0  0  0  0  0  0  0  0  0  0
   13.8616  -27.1892  -11.1829 C   0  0  0  0  0  0  0  0  0  0  0  0
   11.2670  -26.8438  -13.9492 C   0  0  0  0  0  0  0  0  0  0  0  0
   12.6208  -27.0941  -13.2947 C   0  0  0  0  0  0  0  0  0  0  0  0
   10.6348  -25.5432  -13.4546 C   0  0  0  0  0  0  0  0  0  0  0  0
   11.8515  -25.7752  -11.2870 C   0  0  0  0  0  0  0  0  0  0  0  0
   12.4717  -27.0792  -11.7794 C   0  0  2  0  0  0  0  0  0  0  0  0
    9.1520  -27.7842  -10.5131 C   0  0  0  0  0  0  0  0  0  0  0  0
    9.6834  -23.3726  -11.5652 N   0  0  0  0  0  0  0  0  0  0  0  0
    7.7912  -23.0126  -10.0927 N   0  0  0  0  0  0  0  0  0  0  0  0
   10.5843  -25.5183  -11.9880 N   0  0  0  0  0  0  0  0  0  0  0  0
    5.7913  -27.8082   -7.8055 O   0  5  0  0  0  0  0  0  0  0  0  0
   14.0112  -26.6350  -10.0588 O   0  5  0  0  0  0  0  0  0  0  0  0
    7.3615  -29.0054   -8.9006 O   0  0  0  0  0  0  0  0  0  0  0  0
   14.6932  -27.8236  -11.8909 O   0  0  0  0  0  0  0  0  0  0  0  0
    6.6619  -25.1031   -8.8872 S   0  0  0  0  0  0  0  0  0  0  0  0
    8.8181  -21.5513  -11.1256 H   0  0  0  0  0  0  0  0  0  0  0  0
   11.3777  -26.8047  -15.0387 H   0  0  0  0  0  0  0  0  0  0  0  0
   10.5950  -27.6805  -13.7316 H   0  0  0  0  0  0  0  0  0  0  0  0
   12.9928  -28.0679  -13.6073 H   0  0  0  0  0  0  0  0  0  0  0  0
   13.3301  -26.3392  -13.6240 H   0  0  0  0  0  0  0  0  0  0  0  0
   11.2288  -24.6997  -13.8311 H   0  0  0  0  0  0  0  0  0  0  0  0
    9.6206  -25.4407  -13.8647 H   0  0  0  0  0  0  0  0  0  0  0  0
   11.6653  -25.8421  -10.2115 H   0  0  0  0  0  0  0  0  0  0  0  0
   12.5471  -24.9494  -11.4604 H   0  0  0  0  0  0  0  0  0  0  0  0
   11.9055  -27.9201  -11.4463 H   0  0  0  0  0  0  0  0  0  0  0  0
    9.9903  -27.9839   -9.8316 H   0  0  0  0  0  0  0  0  0  0  0  0
    8.5129  -28.6786  -10.5431 H   0  0  0  0  0  0  0  0  0  0  0  0
    9.5569  -27.6544  -11.5274 H   0  0  0  0  0  0  0  0  0  0  0  0
  1 15  1  0  0  0  0
  1 16  2  0  0  0  0
  2  3  1  0  0  0  0
  2  5  1  0  0  0  0
  2  6  2  0  0  0  0
  3  4  2  0  0  0  0
  3 14  1  0  0  0  0
  4  7  1  0  0  0  0
  4 22  1  0  0  0  0
  5 15  2  0  0  0  0
  5 17  1  0  0  0  0
  6 16  1  0  0  0  0
  6 22  1  0  0  0  0
  7 18  1  0  0  0  0
  7 20  2  0  0  0  0
  8 13  1  0  0  0  0
  8 19  1  0  0  0  0
  8 21  2  0  0  0  0
  9 10  1  0  0  0  0
  9 11  1  0  0  0  0
 10 13  1  0  0  0  0
 11 17  1  0  0  0  0
 12 13  1  0  0  0  0
 12 17  1  0  0  0  0
  1 23  1  0  0  0  0
  9 24  1  0  0  0  0
  9 25  1  0  0  0  0
 10 26  1  0  0  0  0
 10 27  1  0  0  0  0
 11 28  1  0  0  0  0
 11 29  1  0  0  0  0
 12 30  1  0  0  0  0
 12 31  1  0  0  0  0
 13 32  1  0  0  0  0
 14 33  1  0  0  0  0
 14 34  1  0  0  0  0
 14 35  1  0  0  0  0
M  CHG  2  18  -1  19  -1
M  END
> <Hybrid2>
-3.2325525283813477

> <Hybrid2>
-3.191511

$$$$
C20327737
  -OEChem-02152218493D

 38 40  0     1  0  0  0  0  0999 V2000
    8.1740  -26.4399   -9.6744 C   0  0  0  0  0  0  0  0  0  0  0  0
    8.1062  -25.0121   -9.7285 C   0  0  0  0  0  0  0  0  0  0  0  0
    6.8483  -24.5321   -9.4348 C   0  0  0  0  0  0  0  0  0  0  0  0
    9.2108  -27.3533   -9.8904 C   0  0  0  0  0  0  0  0  0  0  0  0
    6.9405  -26.9810   -9.3360 C   0  0  0  0  0  0  0  0  0  0  0  0
    7.7379  -29.0623   -9.4327 C   0  0  0  0  0  0  0  0  0  0  0  0
    6.4596  -23.0478   -9.4103 C   0  0  0  0  0  0  0  0  0  0  0  0
   12.3425  -25.8101  -13.3254 C   0  0  0  0  0  0  0  0  0  0  0  0
   12.7735  -26.2592   -9.5682 C   0  0  0  0  0  0  0  0  0  0  0  0
   13.1593  -26.1430  -11.0383 C   0  0  0  0  0  0  0  0  0  0  0  0
   11.6290  -27.2512   -9.3635 C   0  0  0  0  0  0  0  0  0  0  0  0
   10.7988  -26.7702  -11.6683 C   0  0  0  0  0  0  0  0  0  0  0  0
   11.9356  -25.7719  -11.8649 C   0  0  2  0  0  0  0  0  0  0  0  0
    9.2549  -24.1301  -10.0619 C   0  0  0  0  0  0  0  0  0  0  0  0
    7.5239  -30.5341   -9.3045 C   0  0  0  0  0  0  0  0  0  0  0  0
    8.9856  -28.6789   -9.7668 N   0  0  0  0  0  0  0  0  0  0  0  0
    6.6603  -28.2919   -9.1995 N   0  0  0  0  0  0  0  0  0  0  0  0
   10.4966  -26.9211  -10.2368 N   0  0  0  0  0  0  0  0  0  0  0  0
    5.2617  -22.7904   -9.1211 O   0  5  0  0  0  0  0  0  0  0  0  0
   11.4196  -26.1041  -14.1346 O   0  5  0  0  0  0  0  0  0  0  0  0
    7.3752  -22.2276   -9.6819 O   0  0  0  0  0  0  0  0  0  0  0  0
   13.5572  -25.5419  -13.5439 O   0  0  0  0  0  0  0  0  0  0  0  0
    5.7433  -25.7926   -9.0940 S   0  0  0  0  0  0  0  0  0  0  0  0
   13.6400  -26.5742   -8.9759 H   0  0  0  0  0  0  0  0  0  0  0  0
   12.4747  -25.2762   -9.1895 H   0  0  0  0  0  0  0  0  0  0  0  0
   13.9134  -25.3662  -11.1483 H   0  0  0  0  0  0  0  0  0  0  0  0
   13.5888  -27.0821  -11.3778 H   0  0  0  0  0  0  0  0  0  0  0  0
   11.9984  -28.2621   -9.5821 H   0  0  0  0  0  0  0  0  0  0  0  0
   11.3065  -27.2387   -8.3133 H   0  0  0  0  0  0  0  0  0  0  0  0
    9.9069  -26.4168  -12.1931 H   0  0  0  0  0  0  0  0  0  0  0  0
   11.0818  -27.7373  -12.0931 H   0  0  0  0  0  0  0  0  0  0  0  0
   11.6142  -24.7794  -11.6410 H   0  0  0  0  0  0  0  0  0  0  0  0
    9.3032  -23.9500  -11.1447 H   0  0  0  0  0  0  0  0  0  0  0  0
    9.1776  -23.1574   -9.5549 H   0  0  0  0  0  0  0  0  0  0  0  0
   10.2099  -24.5737   -9.7444 H   0  0  0  0  0  0  0  0  0  0  0  0
    7.7206  -30.8592   -8.2760 H   0  0  0  0  0  0  0  0  0  0  0  0
    6.4949  -30.8101   -9.5670 H   0  0  0  0  0  0  0  0  0  0  0  0
    8.1854  -31.0918   -9.9795 H   0  0  0  0  0  0  0  0  0  0  0  0
  1  2  1  0  0  0  0
  1  4  1  0  0  0  0
  1  5  2  0  0  0  0
  2  3  2  0  0  0  0
  2 14  1  0  0  0  0
  3  7  1  0  0  0  0
  3 23  1  0  0  0  0
  4 16  2  0  0  0  0
  4 18  1  0  0  0  0
  5 17  1  0  0  0  0
  5 23  1  0  0  0  0
  6 15  1  0  0  0  0
  6 16  1  0  0  0  0
  6 17  2  0  0  0  0
  7 19  1  0  0  0  0
  7 21  2  0  0  0  0
  8 13  1  0  0  0  0
  8 20  1  0  0  0  0
  8 22  2  0  0  0  0
  9 10  1  0  0  0  0
  9 11  1  0  0  0  0
 10 13  1  0  0  0  0
 11 18  1  0  0  0  0
 12 13  1  0  0  0  0
 12 18  1  0  0  0  0
  9 24  1  0  0  0  0
  9 25  1  0  0  0  0
 10 26  1  0  0  0  0
 10 27  1  0  0  0  0
 11 28  1  0  0  0  0
 11 29  1  0  0  0  0
 12 30  1  0  0  0  0
 12 31  1  0  0  0  0
 13 32  1  0  0  0  0
 14 33  1  0  0  0  0
 14 34  1  0  0  0  0
 14 35  1  0  0  0  0
 15 36  1  0  0  0  0
 15 37  1  0  0  0  0
 15 38  1  0  0  0  0
M  CHG  2  19  -1  20  -1
M  END
> <Hybrid2>
-3.234860420227051

> <Hybrid2>
-3.234860

$$$$
C20327737
  -OEChem-02152218493D

 38 40  0     1  0  0  0  0  0999 V2000
    8.7661  -26.3739  -10.6556 C   0  0  0  0  0  0  0  0  0  0  0  0
    8.8276  -27.7851  -10.4297 C   0  0  0  0  0  0  0  0  0  0  0  0
    7.8393  -28.2265   -9.5770 C   0  0  0  0  0  0  0  0  0  0  0  0
    9.5381  -25.4977  -11.4251 C   0  0  0  0  0  0  0  0  0  0  0  0
    7.7141  -25.8055   -9.9492 C   0  0  0  0  0  0  0  0  0  0  0  0
    8.1944  -23.7672  -10.7184 C   0  0  0  0  0  0  0  0  0  0  0  0
    7.6430  -29.6851   -9.1423 C   0  0  0  0  0  0  0  0  0  0  0  0
   14.2365  -26.8670  -11.6223 C   0  0  0  0  0  0  0  0  0  0  0  0
   11.5375  -26.7956  -14.3082 C   0  0  0  0  0  0  0  0  0  0  0  0
   12.9342  -26.7922  -13.6976 C   0  0  0  0  0  0  0  0  0  0  0  0
   10.6261  -25.7707  -13.6336 C   0  0  0  0  0  0  0  0  0  0  0  0
   11.9403  -25.9904  -11.5224 C   0  0  0  0  0  0  0  0  0  0  0  0
   12.8409  -27.0218  -12.1953 C   0  0  2  0  0  0  0  0  0  0  0  0
    9.8380  -28.6886  -11.0394 C   0  0  0  0  0  0  0  0  0  0  0  0
    7.8984  -22.3051  -10.7731 C   0  0  0  0  0  0  0  0  0  0  0  0
    9.2451  -24.1800  -11.4539 N   0  0  0  0  0  0  0  0  0  0  0  0
    7.3775  -24.5009   -9.9414 N   0  0  0  0  0  0  0  0  0  0  0  0
   10.6242  -25.9597  -12.1782 N   0  0  0  0  0  0  0  0  0  0  0  0
    6.8870  -30.3850   -9.8658 O   0  5  0  0  0  0  0  0  0  0  0  0
   14.7677  -25.7351  -11.7953 O   0  5  0  0  0  0  0  0  0  0  0  0
    8.2561  -30.0440   -8.1030 O   0  0  0  0  0  0  0  0  0  0  0  0
   14.6886  -27.8947  -11.0439 O   0  0  0  0  0  0  0  0  0  0  0  0
    6.8341  -26.9496   -9.0432 S   0  0  0  0  0  0  0  0  0  0  0  0
   11.5958  -26.5817  -15.3814 H   0  0  0  0  0  0  0  0  0  0  0  0
   11.0976  -27.7935  -14.2102 H   0  0  0  0  0  0  0  0  0  0  0  0
   13.5205  -27.5923  -14.1453 H   0  0  0  0  0  0  0  0  0  0  0  0
   13.4262  -25.8483  -13.9179 H   0  0  0  0  0  0  0  0  0  0  0  0
   10.9830  -24.7636  -13.8879 H   0  0  0  0  0  0  0  0  0  0  0  0
    9.6034  -25.8657  -14.0237 H   0  0  0  0  0  0  0  0  0  0  0  0
   11.8150  -26.2474  -10.4670 H   0  0  0  0  0  0  0  0  0  0  0  0
   12.4073  -25.0032  -11.5783 H   0  0  0  0  0  0  0  0  0  0  0  0
   12.5088  -28.0135  -11.9836 H   0  0  0  0  0  0  0  0  0  0  0  0
   10.7247  -28.7683  -10.3956 H   0  0  0  0  0  0  0  0  0  0  0  0
    9.4341  -29.6995  -11.1947 H   0  0  0  0  0  0  0  0  0  0  0  0
   10.1610  -28.3255  -12.0260 H   0  0  0  0  0  0  0  0  0  0  0  0
    7.1997  -22.0886  -11.5898 H   0  0  0  0  0  0  0  0  0  0  0  0
    7.4556  -21.9541   -9.8326 H   0  0  0  0  0  0  0  0  0  0  0  0
    8.8134  -21.7205  -10.9322 H   0  0  0  0  0  0  0  0  0  0  0  0
  1  2  1  0  0  0  0
  1  4  1  0  0  0  0
  1  5  2  0  0  0  0
  2  3  2  0  0  0  0
  2 14  1  0  0  0  0
  3  7  1  0  0  0  0
  3 23  1  0  0  0  0
  4 16  2  0  0  0  0
  4 18  1  0  0  0  0
  5 17  1  0  0  0  0
  5 23  1  0  0  0  0
  6 15  1  0  0  0  0
  6 16  1  0  0  0  0
  6 17  2  0  0  0  0
  7 19  1  0  0  0  0
  7 21  2  0  0  0  0
  8 13  1  0  0  0  0
  8 20  1  0  0  0  0
  8 22  2  0  0  0  0
  9 10  1  0  0  0  0
  9 11  1  0  0  0  0
 10 13  1  0  0  0  0
 11 18  1  0  0  0  0
 12 13  1  0  0  0  0
 12 18  1  0  0  0  0
  9 24  1  0  0  0  0
  9 25  1  0  0  0  0
 10 26  1  0  0  0  0
 10 27  1  0  0  0  0
 11 28  1  0  0  0  0
 11 29  1  0  0  0  0
 12 30  1  0  0  0  0
 12 31  1  0  0  0  0
 13 32  1  0  0  0  0
 14 33  1  0  0  0  0
 14 34  1  0  0  0  0
 14 35  1  0  0  0  0
 15 36  1  0  0  0  0
 15 37  1  0  0  0  0
 15 38  1  0  0  0  0
M  CHG  2  19  -1  20  -1
M  END
> <Hybrid2>
-3.234860420227051

> <Hybrid2>
-2.685982

$$$$
C20377143
  -OEChem-02152218493D

 33 34  0     0  0  0  0  0  0999 V2000
    7.9597  -27.9606   -9.7081 C   0  0  0  0  0  0  0  0  0  0  0  0
    7.1159  -28.9900   -9.2024 C   0  0  0  0  0  0  0  0  0  0  0  0
    6.0408  -28.4769   -8.5108 C   0  0  0  0  0  0  0  0  0  0  0  0
    7.5002  -26.6971   -9.3852 C   0  0  0  0  0  0  0  0  0  0  0  0
    9.1681  -25.6381  -10.4083 C   0  0  0  0  0  0  0  0  0  0  0  0
    9.1842  -28.0897  -10.4840 C   0  0  0  0  0  0  0  0  0  0  0  0
    4.9469  -29.3189   -7.8419 C   0  0  0  0  0  0  0  0  0  0  0  0
   13.4053  -27.0151  -11.7717 C   0  0  0  0  0  0  0  0  0  0  0  0
    7.3548  -30.4434   -9.3908 C   0  0  0  0  0  0  0  0  0  0  0  0
   12.4306  -26.1035   -9.6133 C   0  0  0  0  0  0  0  0  0  0  0  0
   12.1787  -28.5350  -10.1519 C   0  0  0  0  0  0  0  0  0  0  0  0
   10.9841  -26.8068  -11.5796 C   0  0  0  0  0  0  0  0  0  0  0  0
   12.2383  -27.1215  -10.7443 C   0  0  0  0  0  0  0  0  0  0  0  0
    8.0761  -25.5103   -9.7174 N   0  0  0  0  0  0  0  0  0  0  0  0
    9.7657  -26.8418  -10.8157 N   0  0  0  0  0  0  0  0  0  0  0  0
    3.9467  -29.6004   -8.5531 O   0  5  0  0  0  0  0  0  0  0  0  0
   13.2344  -26.1895  -12.7147 O   0  5  0  0  0  0  0  0  0  0  0  0
    9.6451  -29.1807  -10.8058 O   0  0  0  0  0  0  0  0  0  0  0  0
    5.1516  -29.6494   -6.6442 O   0  0  0  0  0  0  0  0  0  0  0  0
   14.4097  -27.7485  -11.5412 O   0  0  0  0  0  0  0  0  0  0  0  0
    6.0547  -26.7656   -8.4754 S   0  0  0  0  0  0  0  0  0  0  0  0
    9.7241  -24.7448  -10.7355 H   0  0  0  0  0  0  0  0  0  0  0  0
    7.9658  -30.8461   -8.5706 H   0  0  0  0  0  0  0  0  0  0  0  0
    6.4112  -31.0080   -9.4241 H   0  0  0  0  0  0  0  0  0  0  0  0
    7.8750  -30.6488  -10.3383 H   0  0  0  0  0  0  0  0  0  0  0  0
   11.6149  -26.1691   -8.8838 H   0  0  0  0  0  0  0  0  0  0  0  0
   13.3699  -26.2678   -9.0729 H   0  0  0  0  0  0  0  0  0  0  0  0
   12.4501  -25.0771   -9.9962 H   0  0  0  0  0  0  0  0  0  0  0  0
   11.3638  -28.6318   -9.4258 H   0  0  0  0  0  0  0  0  0  0  0  0
   13.1129  -28.7840   -9.6355 H   0  0  0  0  0  0  0  0  0  0  0  0
   12.0177  -29.2941  -10.9258 H   0  0  0  0  0  0  0  0  0  0  0  0
   10.8639  -27.5241  -12.4000 H   0  0  0  0  0  0  0  0  0  0  0  0
   11.0471  -25.8089  -12.0295 H   0  0  0  0  0  0  0  0  0  0  0  0
  1  2  1  0  0  0  0
  1  4  2  0  0  0  0
  1  6  1  0  0  0  0
  2  3  2  0  0  0  0
  2  9  1  0  0  0  0
  3  7  1  0  0  0  0
  3 21  1  0  0  0  0
  4 14  1  0  0  0  0
  4 21  1  0  0  0  0
  5 14  2  0  0  0  0
  5 15  1  0  0  0  0
  6 15  1  0  0  0  0
  6 18  2  0  0  0  0
  7 16  1  0  0  0  0
  7 19  2  0  0  0  0
  8 13  1  0  0  0  0
  8 17  1  0  0  0  0
  8 20  2  0  0  0  0
 10 13  1  0  0  0  0
 11 13  1  0  0  0  0
 12 13  1  0  0  0  0
 12 15  1  0  0  0  0
  5 22  1  0  0  0  0
  9 23  1  0  0  0  0
  9 24  1  0  0  0  0
  9 25  1  0  0  0  0
 10 26  1  0  0  0  0
 10 27  1  0  0  0  0
 10 28  1  0  0  0  0
 11 29  1  0  0  0  0
 11 30  1  0  0  0  0
 11 31  1  0  0  0  0
 12 32  1  0  0  0  0
 12 33  1  0  0  0  0
M  CHG  2  16  -1  17  -1
M  END
> <Hybrid2>
-3.3343091011047363

> <Hybrid2>
-3.334309

$$$$
C20377143
  -OEChem-02152218493D

 33 34  0     0  0  0  0  0  0999 V2000
    8.4689  -27.6941   -9.5384 C   0  0  0  0  0  0  0  0  0  0  0  0
    7.3697  -28.5565   -9.2636 C   0  0  0  0  0  0  0  0  0  0  0  0
    6.1981  -27.8529   -9.0906 C   0  0  0  0  0  0  0  0  0  0  0  0
    8.0992  -26.3621   -9.5657 C   0  0  0  0  0  0  0  0  0  0  0  0
   10.1488  -25.6210  -10.0125 C   0  0  0  0  0  0  0  0  0  0  0  0
    9.8605  -28.0457   -9.7796 C   0  0  0  0  0  0  0  0  0  0  0  0
    4.8347  -28.4843   -8.7816 C   0  0  0  0  0  0  0  0  0  0  0  0
   13.8325  -27.7271  -11.8568 C   0  0  0  0  0  0  0  0  0  0  0  0
    7.4620  -30.0356   -9.1718 C   0  0  0  0  0  0  0  0  0  0  0  0
   11.4242  -27.6783  -12.6554 C   0  0  0  0  0  0  0  0  0  0  0  0
   12.6142  -25.5261  -12.1884 C   0  0  0  0  0  0  0  0  0  0  0  0
   12.0883  -27.1069  -10.2709 C   0  0  0  0  0  0  0  0  0  0  0  0
   12.4624  -26.9910  -11.7596 C   0  0  0  0  0  0  0  0  0  0  0  0
    8.9099  -25.2952   -9.7998 N   0  0  0  0  0  0  0  0  0  0  0  0
   10.6845  -26.9191  -10.0186 N   0  0  0  0  0  0  0  0  0  0  0  0
    4.1264  -28.7956   -9.7750 O   0  5  0  0  0  0  0  0  0  0  0  0
   14.7613  -27.2577  -11.1378 O   0  5  0  0  0  0  0  0  0  0  0  0
   10.2544  -29.2080   -9.7716 O   0  0  0  0  0  0  0  0  0  0  0  0
    4.5516  -28.6318   -7.5636 O   0  0  0  0  0  0  0  0  0  0  0  0
   13.8647  -28.7302  -12.6266 O   0  0  0  0  0  0  0  0  0  0  0  0
    6.4290  -26.1653   -9.2599 S   0  0  0  0  0  0  0  0  0  0  0  0
   10.9000  -24.8404  -10.2140 H   0  0  0  0  0  0  0  0  0  0  0  0
    7.6795  -30.3481   -8.1407 H   0  0  0  0  0  0  0  0  0  0  0  0
    6.5257  -30.5201   -9.4863 H   0  0  0  0  0  0  0  0  0  0  0  0
    8.2536  -30.4332   -9.8245 H   0  0  0  0  0  0  0  0  0  0  0  0
   10.4555  -27.1688  -12.5952 H   0  0  0  0  0  0  0  0  0  0  0  0
   11.7312  -27.6793  -13.7076 H   0  0  0  0  0  0  0  0  0  0  0  0
   11.2679  -28.7220  -12.3605 H   0  0  0  0  0  0  0  0  0  0  0  0
   11.6610  -24.9893  -12.1275 H   0  0  0  0  0  0  0  0  0  0  0  0
   12.9684  -25.4547  -13.2233 H   0  0  0  0  0  0  0  0  0  0  0  0
   13.3315  -24.9896  -11.5570 H   0  0  0  0  0  0  0  0  0  0  0  0
   12.6204  -26.3607   -9.6692 H   0  0  0  0  0  0  0  0  0  0  0  0
   12.3527  -28.0928   -9.8709 H   0  0  0  0  0  0  0  0  0  0  0  0
  1  2  1  0  0  0  0
  1  4  2  0  0  0  0
  1  6  1  0  0  0  0
  2  3  2  0  0  0  0
  2  9  1  0  0  0  0
  3  7  1  0  0  0  0
  3 21  1  0  0  0  0
  4 14  1  0  0  0  0
  4 21  1  0  0  0  0
  5 14  2  0  0  0  0
  5 15  1  0  0  0  0
  6 15  1  0  0  0  0
  6 18  2  0  0  0  0
  7 16  1  0  0  0  0
  7 19  2  0  0  0  0
  8 13  1  0  0  0  0
  8 17  1  0  0  0  0
  8 20  2  0  0  0  0
 10 13  1  0  0  0  0
 11 13  1  0  0  0  0
 12 13  1  0  0  0  0
 12 15  1  0  0  0  0
  5 22  1  0  0  0  0
  9 23  1  0  0  0  0
  9 24  1  0  0  0  0
  9 25  1  0  0  0  0
 10 26  1  0  0  0  0
 10 27  1  0  0  0  0
 10 28  1  0  0  0  0
 11 29  1  0  0  0  0
 11 30  1  0  0  0  0
 11 31  1  0  0  0  0
 12 32  1  0  0  0  0
 12 33  1  0  0  0  0
M  CHG  2  16  -1  17  -1
M  END
> <Hybrid2>
-3.3343091011047363

> <Hybrid2>
-2.012849

$$$$
C20394398
  -OEChem-02152218493D

 25 26  0     0  0  0  0  0  0999 V2000
    9.5311  -25.4857  -11.8111 C   0  0  0  0  0  0  0  0  0  0  0  0
   10.7968  -26.7762  -10.2081 C   0  0  0  0  0  0  0  0  0  0  0  0
    8.5085  -25.3270  -10.8760 C   0  0  0  0  0  0  0  0  0  0  0  0
    9.7741  -26.6175   -9.2729 C   0  0  0  0  0  0  0  0  0  0  0  0
    5.3498  -28.7677   -8.0310 C   0  0  0  0  0  0  0  0  0  0  0  0
   10.6753  -26.2104  -11.4772 C   0  0  0  0  0  0  0  0  0  0  0  0
    8.6300  -25.8928   -9.6068 C   0  0  0  0  0  0  0  0  0  0  0  0
    6.1861  -28.0892   -8.8798 C   0  0  0  0  0  0  0  0  0  0  0  0
    7.3489  -29.9970   -9.2080 C   0  0  0  0  0  0  0  0  0  0  0  0
   11.7536  -26.3781  -12.4646 C   0  0  0  0  0  0  0  0  0  0  0  0
    7.5373  -25.7200   -8.6069 C   0  0  0  0  0  0  0  0  0  0  0  0
    5.5343  -30.0769   -7.7819 N   0  0  0  0  0  0  0  0  0  0  0  0
    7.2146  -28.6935   -9.4939 N   0  0  0  0  0  0  0  0  0  0  0  0
    6.5601  -30.7142   -8.3838 N   0  0  0  0  0  0  0  0  0  0  0  0
    8.3112  -30.6163   -9.7662 O   0  5  0  0  0  0  0  0  0  0  0  0
   12.7999  -27.0514  -12.1316 O   0  5  0  0  0  0  0  0  0  0  0  0
   11.6160  -25.8459  -13.6294 O   0  0  0  0  0  0  0  0  0  0  0  0
    5.9437  -26.3690   -9.1965 S   0  0  0  0  0  0  0  0  0  0  0  0
    9.4264  -25.0410  -12.7974 H   0  0  0  0  0  0  0  0  0  0  0  0
   11.6842  -27.3429   -9.9383 H   0  0  0  0  0  0  0  0  0  0  0  0
    7.6209  -24.7609  -11.1455 H   0  0  0  0  0  0  0  0  0  0  0  0
    9.8774  -27.0619   -8.2865 H   0  0  0  0  0  0  0  0  0  0  0  0
    4.5149  -28.3059   -7.5188 H   0  0  0  0  0  0  0  0  0  0  0  0
    7.7874  -26.2244   -7.6618 H   0  0  0  0  0  0  0  0  0  0  0  0
    7.4038  -24.6573   -8.3560 H   0  0  0  0  0  0  0  0  0  0  0  0
  1  3  1  0  0  0  0
  1  6  2  0  0  0  0
  2  4  2  0  0  0  0
  2  6  1  0  0  0  0
  3  7  2  0  0  0  0
  4  7  1  0  0  0  0
  5  8  1  0  0  0  0
  5 12  2  0  0  0  0
  6 10  1  0  0  0  0
  7 11  1  0  0  0  0
  8 13  2  0  0  0  0
  8 18  1  0  0  0  0
  9 13  1  0  0  0  0
  9 14  2  0  0  0  0
  9 15  1  0  0  0  0
 10 16  1  0  0  0  0
 10 17  2  0  0  0  0
 11 18  1  0  0  0  0
 12 14  1  0  0  0  0
  1 19  1  0  0  0  0
  2 20  1  0  0  0  0
  3 21  1  0  0  0  0
  4 22  1  0  0  0  0
  5 23  1  0  0  0  0
 11 24  1  0  0  0  0
 11 25  1  0  0  0  0
M  CHG  2  15  -1  16  -1
M  END
> <Hybrid2>
-3.4594228267669678

> <Hybrid2>
-3.459423

$$$$
C20394398
  -OEChem-02152218493D

 25 26  0     0  0  0  0  0  0999 V2000
   10.9513  -25.8900  -11.7891 C   0  0  0  0  0  0  0  0  0  0  0  0
   11.5462  -27.0575   -9.7594 C   0  0  0  0  0  0  0  0  0  0  0  0
    9.7901  -25.4179  -11.1773 C   0  0  0  0  0  0  0  0  0  0  0  0
   10.3850  -26.5854   -9.1475 C   0  0  0  0  0  0  0  0  0  0  0  0
    5.4686  -27.7925   -8.8116 C   0  0  0  0  0  0  0  0  0  0  0  0
   11.8293  -26.7098  -11.0802 C   0  0  0  0  0  0  0  0  0  0  0  0
    9.5069  -25.7656   -9.8564 C   0  0  0  0  0  0  0  0  0  0  0  0
    6.5908  -27.4067   -9.4989 C   0  0  0  0  0  0  0  0  0  0  0  0
    7.4147  -29.4960   -9.2633 C   0  0  0  0  0  0  0  0  0  0  0  0
   13.0540  -27.2081  -11.7266 C   0  0  0  0  0  0  0  0  0  0  0  0
    8.2667  -25.2580   -9.2024 C   0  0  0  0  0  0  0  0  0  0  0  0
    5.3394  -29.0508   -8.3535 N   0  0  0  0  0  0  0  0  0  0  0  0
    7.5993  -28.2571   -9.7432 N   0  0  0  0  0  0  0  0  0  0  0  0
    6.3363  -29.9309   -8.5823 N   0  0  0  0  0  0  0  0  0  0  0  0
    8.3443  -30.3412   -9.4691 O   0  5  0  0  0  0  0  0  0  0  0  0
   13.8486  -27.9632  -11.0504 O   0  5  0  0  0  0  0  0  0  0  0  0
   13.2913  -26.8725  -12.9472 O   0  0  0  0  0  0  0  0  0  0  0  0
    6.7581  -25.7515  -10.0907 S   0  0  0  0  0  0  0  0  0  0  0  0
   11.1624  -25.6133  -12.8188 H   0  0  0  0  0  0  0  0  0  0  0  0
   12.2239  -27.6960   -9.1985 H   0  0  0  0  0  0  0  0  0  0  0  0
    9.1120  -24.7799  -11.7378 H   0  0  0  0  0  0  0  0  0  0  0  0
   10.1725  -26.8615   -8.1180 H   0  0  0  0  0  0  0  0  0  0  0  0
    4.6414  -27.1277   -8.5964 H   0  0  0  0  0  0  0  0  0  0  0  0
    8.1925  -25.6219   -8.1669 H   0  0  0  0  0  0  0  0  0  0  0  0
    8.2829  -24.1601   -9.1364 H   0  0  0  0  0  0  0  0  0  0  0  0
  1  3  1  0  0  0  0
  1  6  2  0  0  0  0
  2  4  2  0  0  0  0
  2  6  1  0  0  0  0
  3  7  2  0  0  0  0
  4  7  1  0  0  0  0
  5  8  1  0  0  0  0
  5 12  2  0  0  0  0
  6 10  1  0  0  0  0
  7 11  1  0  0  0  0
  8 13  2  0  0  0  0
  8 18  1  0  0  0  0
  9 13  1  0  0  0  0
  9 14  2  0  0  0  0
  9 15  1  0  0  0  0
 10 16  1  0  0  0  0
 10 17  2  0  0  0  0
 11 18  1  0  0  0  0
 12 14  1  0  0  0  0
  1 19  1  0  0  0  0
  2 20  1  0  0  0  0
  3 21  1  0  0  0  0
  4 22  1  0  0  0  0
  5 23  1  0  0  0  0
 11 24  1  0  0  0  0
 11 25  1  0  0  0  0
M  CHG  2  15  -1  16  -1
M  END
> <Hybrid2>
-3.4594228267669678

> <Hybrid2>
-2.409585

$$$$
C22008124
  -OEChem-02152218493D

 35 36  0     0  0  0  0  0  0999 V2000
   11.1152  -27.1159   -8.8362 C   0  0  0  0  0  0  0  0  0  0  0  0
    9.7775  -26.7376   -8.9496 C   0  0  0  0  0  0  0  0  0  0  0  0
   11.9246  -27.1658   -9.9711 C   0  0  0  0  0  0  0  0  0  0  0  0
   10.0584  -26.4591  -11.3331 C   0  0  0  0  0  0  0  0  0  0  0  0
    9.2491  -26.4092  -10.1981 C   0  0  0  0  0  0  0  0  0  0  0  0
   11.3962  -26.8374  -11.2196 C   0  0  0  0  0  0  0  0  0  0  0  0
    6.9664  -26.7399   -9.2749 C   0  0  0  0  0  0  0  0  0  0  0  0
    7.6844  -24.4796  -10.2193 C   0  0  0  0  0  0  0  0  0  0  0  0
    6.3406  -26.0705   -8.2805 C   0  0  0  0  0  0  0  0  0  0  0  0
    7.0310  -23.8967   -9.1887 C   0  0  0  0  0  0  0  0  0  0  0  0
    6.8335  -28.2526   -9.4390 C   0  0  0  0  0  0  0  0  0  0  0  0
    8.2871  -23.6624  -11.3604 C   0  0  0  0  0  0  0  0  0  0  0  0
    7.8099  -26.0031  -10.3201 C   0  0  0  0  0  0  0  0  0  0  0  0
    5.5341  -26.7048   -7.1812 C   0  0  0  0  0  0  0  0  0  0  0  0
    6.8972  -22.4146   -8.9737 C   0  0  0  0  0  0  0  0  0  0  0  0
    6.4184  -24.6881   -8.2302 N   0  0  0  0  0  0  0  0  0  0  0  0
   12.2205  -26.8871  -12.3746 N   0  3  0  0  0  0  0  0  0  0  0  0
    5.8781  -28.6166  -10.1711 O   0  5  0  0  0  0  0  0  0  0  0  0
    9.1602  -22.8312  -11.0030 O   0  5  0  0  0  0  0  0  0  0  0  0
   13.4215  -27.2288  -12.2505 O   0  5  0  0  0  0  0  0  0  0  0  0
    7.6981  -28.9231   -8.8193 O   0  0  0  0  0  0  0  0  0  0  0  0
    7.8261  -23.9350  -12.4980 O   0  0  0  0  0  0  0  0  0  0  0  0
   11.7256  -26.5874  -13.4882 O   0  0  0  0  0  0  0  0  0  0  0  0
   11.5268  -27.3710   -7.8640 H   0  0  0  0  0  0  0  0  0  0  0  0
    9.1538  -26.7019   -8.0605 H   0  0  0  0  0  0  0  0  0  0  0  0
   12.9656  -27.4622   -9.8684 H   0  0  0  0  0  0  0  0  0  0  0  0
    9.6415  -26.2023  -12.3046 H   0  0  0  0  0  0  0  0  0  0  0  0
    7.4554  -26.3056  -11.3137 H   0  0  0  0  0  0  0  0  0  0  0  0
    6.1852  -26.9266   -6.3403 H   0  0  0  0  0  0  0  0  0  0  0  0
    5.0835  -27.6225   -7.5494 H   0  0  0  0  0  0  0  0  0  0  0  0
    4.7507  -26.0194   -6.8690 H   0  0  0  0  0  0  0  0  0  0  0  0
    5.9997  -22.0589   -9.4720 H   0  0  0  0  0  0  0  0  0  0  0  0
    7.7690  -21.9115   -9.3835 H   0  0  0  0  0  0  0  0  0  0  0  0
    6.8317  -22.2104   -7.9084 H   0  0  0  0  0  0  0  0  0  0  0  0
    5.9295  -24.2184   -7.4764 H   0  0  0  0  0  0  0  0  0  0  0  0
  1  2  2  0  0  0  0
  1  3  1  0  0  0  0
  2  5  1  0  0  0  0
  3  6  2  0  0  0  0
  4  5  2  0  0  0  0
  4  6  1  0  0  0  0
  5 13  1  0  0  0  0
  6 17  1  0  0  0  0
  7  9  2  0  0  0  0
  7 11  1  0  0  0  0
  7 13  1  0  0  0  0
  8 10  2  0  0  0  0
  8 12  1  0  0  0  0
  8 13  1  0  0  0  0
  9 14  1  0  0  0  0
  9 16  1  0  0  0  0
 10 15  1  0  0  0  0
 10 16  1  0  0  0  0
 11 18  1  0  0  0  0
 11 21  2  0  0  0  0
 12 19  1  0  0  0  0
 12 22  2  0  0  0  0
 17 20  1  0  0  0  0
 17 23  2  0  0  0  0
  1 24  1  0  0  0  0
  2 25  1  0  0  0  0
  3 26  1  0  0  0  0
  4 27  1  0  0  0  0
 13 28  1  0  0  0  0
 14 29  1  0  0  0  0
 14 30  1  0  0  0  0
 14 31  1  0  0  0  0
 15 32  1  0  0  0  0
 15 33  1  0  0  0  0
 15 34  1  0  0  0  0
 16 35  1  0  0  0  0
M  CHG  4  17   1  18  -1  19  -1  20  -1
M  END
> <Hybrid2>
-2.4468374252319336

> <Hybrid2>
-2.446837

$$$$
C22008124
  -OEChem-02152218493D

 35 36  0     0  0  0  0  0  0999 V2000
   11.5746  -27.2536   -8.5486 C   0  0  0  0  0  0  0  0  0  0  0  0
   10.2308  -27.0028   -8.8257 C   0  0  0  0  0  0  0  0  0  0  0  0
   12.5131  -27.2440   -9.5804 C   0  0  0  0  0  0  0  0  0  0  0  0
   10.7639  -26.7329  -11.1666 C   0  0  0  0  0  0  0  0  0  0  0  0
    9.8254  -26.7424  -10.1347 C   0  0  0  0  0  0  0  0  0  0  0  0
   12.1078  -26.9837  -10.8895 C   0  0  0  0  0  0  0  0  0  0  0  0
    7.4894  -27.2707   -9.4745 C   0  0  0  0  0  0  0  0  0  0  0  0
    8.1058  -24.9669  -10.3850 C   0  0  0  0  0  0  0  0  0  0  0  0
    6.6928  -26.6484   -8.5763 C   0  0  0  0  0  0  0  0  0  0  0  0
    7.2855  -24.4329   -9.4519 C   0  0  0  0  0  0  0  0  0  0  0  0
    7.5143  -28.7913   -9.6153 C   0  0  0  0  0  0  0  0  0  0  0  0
    8.7621  -24.1134  -11.4685 C   0  0  0  0  0  0  0  0  0  0  0  0
    8.3798  -26.4735  -10.4328 C   0  0  0  0  0  0  0  0  0  0  0  0
    5.8233  -27.3394   -7.5625 C   0  0  0  0  0  0  0  0  0  0  0  0
    6.9936  -22.9667   -9.2907 C   0  0  0  0  0  0  0  0  0  0  0  0
    6.6386  -25.2642   -8.5516 N   0  0  0  0  0  0  0  0  0  0  0  0
   13.0634  -26.9727  -11.9395 N   0  3  0  0  0  0  0  0  0  0  0  0
    6.6887  -29.2527  -10.4439 O   0  5  0  0  0  0  0  0  0  0  0  0
    9.5082  -23.1997  -11.0330 O   0  5  0  0  0  0  0  0  0  0  0  0
   14.2674  -27.1997  -11.6686 O   0  5  0  0  0  0  0  0  0  0  0  0
    8.3571  -29.3699   -8.8831 O   0  0  0  0  0  0  0  0  0  0  0  0
    8.4648  -24.4435  -12.6448 O   0  0  0  0  0  0  0  0  0  0  0  0
   12.6780  -26.7360  -13.1101 O   0  0  0  0  0  0  0  0  0  0  0  0
   11.8903  -27.4557   -7.5292 H   0  0  0  0  0  0  0  0  0  0  0  0
    9.5061  -27.0127   -8.0160 H   0  0  0  0  0  0  0  0  0  0  0  0
   13.5573  -27.4409   -9.3504 H   0  0  0  0  0  0  0  0  0  0  0  0
   10.4428  -26.5295  -12.1860 H   0  0  0  0  0  0  0  0  0  0  0  0
    8.1736  -26.8215  -11.4530 H   0  0  0  0  0  0  0  0  0  0  0  0
    6.3883  -27.4879   -6.6465 H   0  0  0  0  0  0  0  0  0  0  0  0
    5.5042  -28.3001   -7.9575 H   0  0  0  0  0  0  0  0  0  0  0  0
    4.9498  -26.7254   -7.3603 H   0  0  0  0  0  0  0  0  0  0  0  0
    6.1326  -22.7030   -9.8984 H   0  0  0  0  0  0  0  0  0  0  0  0
    7.8584  -22.3906   -9.6090 H   0  0  0  0  0  0  0  0  0  0  0  0
    6.7850  -22.7546   -8.2456 H   0  0  0  0  0  0  0  0  0  0  0  0
    6.0238  -24.8314   -7.8714 H   0  0  0  0  0  0  0  0  0  0  0  0
  1  2  2  0  0  0  0
  1  3  1  0  0  0  0
  2  5  1  0  0  0  0
  3  6  2  0  0  0  0
  4  5  2  0  0  0  0
  4  6  1  0  0  0  0
  5 13  1  0  0  0  0
  6 17  1  0  0  0  0
  7  9  2  0  0  0  0
  7 11  1  0  0  0  0
  7 13  1  0  0  0  0
  8 10  2  0  0  0  0
  8 12  1  0  0  0  0
  8 13  1  0  0  0  0
  9 14  1  0  0  0  0
  9 16  1  0  0  0  0
 10 15  1  0  0  0  0
 10 16  1  0  0  0  0
 11 18  1  0  0  0  0
 11 21  2  0  0  0  0
 12 19  1  0  0  0  0
 12 22  2  0  0  0  0
 17 20  1  0  0  0  0
 17 23  2  0  0  0  0
  1 24  1  0  0  0  0
  2 25  1  0  0  0  0
  3 26  1  0  0  0  0
  4 27  1  0  0  0  0
 13 28  1  0  0  0  0
 14 29  1  0  0  0  0
 14 30  1  0  0  0  0
 14 31  1  0  0  0  0
 15 32  1  0  0  0  0
 15 33  1  0  0  0  0
 15 34  1  0  0  0  0
 16 35  1  0  0  0  0
M  CHG  4  17   1  18  -1  19  -1  20  -1
M  END
> <Hybrid2>
-2.4468374252319336

> <Hybrid2>
-2.353570

$$$$
C22009639
  -OEChem-02152218493D

 27 28  0     1  0  0  0  0  0999 V2000
    5.7171  -26.8614   -8.9863 C   0  0  0  0  0  0  0  0  0  0  0  0
    5.5209  -25.6613   -9.6808 C   0  0  0  0  0  0  0  0  0  0  0  0
    6.9943  -27.4184   -8.8785 C   0  0  0  0  0  0  0  0  0  0  0  0
    6.5985  -25.0062  -10.2761 C   0  0  0  0  0  0  0  0  0  0  0  0
    8.0726  -26.7662   -9.4645 C   0  0  0  0  0  0  0  0  0  0  0  0
    7.8605  -25.5707  -10.1601 C   0  0  0  0  0  0  0  0  0  0  0  0
   14.6523  -27.6330  -11.0317 C   0  0  0  0  0  0  0  0  0  0  0  0
   12.0654  -24.9730  -12.4142 C   0  0  0  0  0  0  0  0  0  0  0  0
   10.3210  -26.3376  -10.0973 C   0  0  2  0  0  0  0  0  0  0  0  0
   13.8760  -26.7973  -12.0593 C   0  0  0  0  0  0  0  0  0  0  0  0
   12.6539  -26.0701  -11.5122 C   0  0  2  0  0  0  0  0  0  0  0  0
    9.3814  -27.2285   -9.4376 N   0  0  0  0  0  0  0  0  0  0  0  0
   15.6132  -28.2927  -11.5241 O   0  5  0  0  0  0  0  0  0  0  0  0
   11.7674  -25.3542  -13.5842 O   0  5  0  0  0  0  0  0  0  0  0  0
   14.2515  -27.5770   -9.8370 O   0  0  0  0  0  0  0  0  0  0  0  0
   11.9257  -23.8321  -11.8895 O   0  0  0  0  0  0  0  0  0  0  0  0
    9.3778  -24.9481  -10.8275 S   0  0  0  0  0  0  0  0  0  0  0  0
   11.2673  -27.2209  -11.3651 S   0  0  0  0  0  0  0  0  0  0  0  0
    4.8688  -27.3627   -8.5281 H   0  0  0  0  0  0  0  0  0  0  0  0
    4.5223  -25.2400   -9.7567 H   0  0  0  0  0  0  0  0  0  0  0  0
    7.1332  -28.3511   -8.3396 H   0  0  0  0  0  0  0  0  0  0  0  0
    6.4418  -24.0783  -10.8165 H   0  0  0  0  0  0  0  0  0  0  0  0
   11.0163  -25.9297   -9.3571 H   0  0  0  0  0  0  0  0  0  0  0  0
   14.5844  -26.0896  -12.5102 H   0  0  0  0  0  0  0  0  0  0  0  0
   13.5707  -27.4953  -12.8503 H   0  0  0  0  0  0  0  0  0  0  0  0
   12.8638  -25.6598  -10.5181 H   0  0  0  0  0  0  0  0  0  0  0  0
    9.6650  -28.0542   -8.9304 H   0  0  0  0  0  0  0  0  0  0  0  0
  1  2  1  0  0  0  0
  1  3  2  0  0  0  0
  2  4  2  0  0  0  0
  3  5  1  0  0  0  0
  4  6  1  0  0  0  0
  5  6  2  0  0  0  0
  5 12  1  0  0  0  0
  6 17  1  0  0  0  0
  7 10  1  0  0  0  0
  7 13  1  0  0  0  0
  7 15  2  0  0  0  0
  8 11  1  0  0  0  0
  8 14  1  0  0  0  0
  8 16  2  0  0  0  0
  9 12  1  0  0  0  0
  9 17  1  0  0  0  0
  9 18  1  0  0  0  0
 10 11  1  0  0  0  0
 11 18  1  0  0  0  0
  1 19  1  0  0  0  0
  2 20  1  0  0  0  0
  3 21  1  0  0  0  0
  4 22  1  0  0  0  0
  9 23  1  0  0  0  0
 10 24  1  0  0  0  0
 10 25  1  0  0  0  0
 11 26  1  0  0  0  0
 12 27  1  0  0  0  0
M  CHG  2  13  -1  14  -1
M  END
> <Hybrid2>
-3.8042898178100586

> <Hybrid2>
-3.804290

$$$$
C22009639
  -OEChem-02152218493D

 27 28  0     1  0  0  0  0  0999 V2000
    5.3117  -27.5145   -8.3125 C   0  0  0  0  0  0  0  0  0  0  0  0
    5.9422  -28.7649   -8.3128 C   0  0  0  0  0  0  0  0  0  0  0  0
    5.8890  -26.4283   -8.9759 C   0  0  0  0  0  0  0  0  0  0  0  0
    7.1568  -28.9425   -8.9746 C   0  0  0  0  0  0  0  0  0  0  0  0
    7.0963  -26.6016   -9.6424 C   0  0  0  0  0  0  0  0  0  0  0  0
    7.7175  -27.8554   -9.6294 C   0  0  0  0  0  0  0  0  0  0  0  0
   12.3438  -26.5893  -13.7902 C   0  0  0  0  0  0  0  0  0  0  0  0
   12.9529  -25.0910  -11.0050 C   0  0  0  0  0  0  0  0  0  0  0  0
    8.9945  -26.0541  -10.9600 C   0  0  2  0  0  0  0  0  0  0  0  0
   11.3348  -25.8874  -12.8704 C   0  0  0  0  0  0  0  0  0  0  0  0
   11.6971  -25.8896  -11.3905 C   0  0  2  0  0  0  0  0  0  0  0  0
    7.7717  -25.5968  -10.3217 N   0  0  0  0  0  0  0  0  0  0  0  0
   11.9832  -26.6475  -15.0017 O   0  5  0  0  0  0  0  0  0  0  0  0
   12.9432  -23.8801  -11.3745 O   0  5  0  0  0  0  0  0  0  0  0  0
   13.3951  -27.0275  -13.2482 O   0  0  0  0  0  0  0  0  0  0  0  0
   13.8356  -25.7164  -10.3522 O   0  0  0  0  0  0  0  0  0  0  0  0
    9.2434  -27.8159  -10.5268 S   0  0  0  0  0  0  0  0  0  0  0  0
   10.4094  -25.0486  -10.4400 S   0  0  0  0  0  0  0  0  0  0  0  0
    4.3662  -27.3889   -7.7919 H   0  0  0  0  0  0  0  0  0  0  0  0
    5.4820  -29.6003   -7.7927 H   0  0  0  0  0  0  0  0  0  0  0  0
    5.3916  -25.4629   -8.9661 H   0  0  0  0  0  0  0  0  0  0  0  0
    7.6441  -29.9121   -8.9695 H   0  0  0  0  0  0  0  0  0  0  0  0
    8.8876  -25.9790  -12.0465 H   0  0  0  0  0  0  0  0  0  0  0  0
   11.2091  -24.8617  -13.2421 H   0  0  0  0  0  0  0  0  0  0  0  0
   10.3771  -26.4037  -13.0200 H   0  0  0  0  0  0  0  0  0  0  0  0
   11.7814  -26.9163  -11.0169 H   0  0  0  0  0  0  0  0  0  0  0  0
    7.4024  -24.6644  -10.4380 H   0  0  0  0  0  0  0  0  0  0  0  0
  1  2  1  0  0  0  0
  1  3  2  0  0  0  0
  2  4  2  0  0  0  0
  3  5  1  0  0  0  0
  4  6  1  0  0  0  0
  5  6  2  0  0  0  0
  5 12  1  0  0  0  0
  6 17  1  0  0  0  0
  7 10  1  0  0  0  0
  7 13  1  0  0  0  0
  7 15  2  0  0  0  0
  8 11  1  0  0  0  0
  8 14  1  0  0  0  0
  8 16  2  0  0  0  0
  9 12  1  0  0  0  0
  9 17  1  0  0  0  0
  9 18  1  0  0  0  0
 10 11  1  0  0  0  0
 11 18  1  0  0  0  0
  1 19  1  0  0  0  0
  2 20  1  0  0  0  0
  3 21  1  0  0  0  0
  4 22  1  0  0  0  0
  9 23  1  0  0  0  0
 10 24  1  0  0  0  0
 10 25  1  0  0  0  0
 11 26  1  0  0  0  0
 12 27  1  0  0  0  0
M  CHG  2  13  -1  14  -1
M  END
> <Hybrid2>
-3.8042898178100586

> <Hybrid2>
-3.475873

$$$$
C28297254
  -OEChem-02152218493D

 31 33  0     0  0  0  0  0  0999 V2000
    8.0137  -23.0767   -9.5235 C   0  0  0  0  0  0  0  0  0  0  0  0
    7.5913  -30.0734   -9.4290 C   0  0  0  0  0  0  0  0  0  0  0  0
    6.2891  -29.7622   -9.0538 C   0  0  0  0  0  0  0  0  0  0  0  0
    8.4854  -29.0635   -9.7960 C   0  0  0  0  0  0  0  0  0  0  0  0
    5.8457  -28.4374   -9.0351 C   0  0  0  0  0  0  0  0  0  0  0  0
   11.4520  -25.3475  -11.5188 C   0  0  0  0  0  0  0  0  0  0  0  0
   10.5339  -26.1673  -14.0223 C   0  0  0  0  0  0  0  0  0  0  0  0
   10.2586  -24.8341  -12.0263 C   0  0  0  0  0  0  0  0  0  0  0  0
    8.0632  -27.7164   -9.7858 C   0  0  0  0  0  0  0  0  0  0  0  0
   12.1865  -26.2707  -12.2630 C   0  0  0  0  0  0  0  0  0  0  0  0
    9.7995  -25.2440  -13.2780 C   0  0  0  0  0  0  0  0  0  0  0  0
   11.7274  -26.6807  -13.5147 C   0  0  0  0  0  0  0  0  0  0  0  0
    6.7491  -27.4281   -9.4050 C   0  0  0  0  0  0  0  0  0  0  0  0
    8.1189  -25.5214   -9.9995 C   0  0  0  0  0  0  0  0  0  0  0  0
    9.5390  -23.8657  -11.1864 C   0  0  0  0  0  0  0  0  0  0  0  0
    8.5730  -24.2082  -10.2573 C   0  0  0  0  0  0  0  0  0  0  0  0
    7.5413  -22.2072   -8.9170 N   0  0  0  0  0  0  0  0  0  0  0  0
    8.8350  -26.6143  -10.1235 N   0  0  0  0  0  0  0  0  0  0  0  0
   13.4010  -26.7635  -11.6950 N   0  3  0  0  0  0  0  0  0  0  0  0
    8.7043  -24.7885  -13.7705 O   0  5  0  0  0  0  0  0  0  0  0  0
   12.3830  -27.5291  -14.2215 O   0  5  0  0  0  0  0  0  0  0  0  0
   13.3566  -27.7916  -10.9840 O   0  5  0  0  0  0  0  0  0  0  0  0
   14.4650  -26.1490  -11.9289 O   0  0  0  0  0  0  0  0  0  0  0  0
    6.5013  -25.7235   -9.4812 S   0  0  0  0  0  0  0  0  0  0  0  0
    7.9184  -31.1096   -9.4376 H   0  0  0  0  0  0  0  0  0  0  0  0
    5.6058  -30.5588   -8.7711 H   0  0  0  0  0  0  0  0  0  0  0  0
    9.5005  -29.3180  -10.0875 H   0  0  0  0  0  0  0  0  0  0  0  0
    4.8275  -28.2019   -8.7411 H   0  0  0  0  0  0  0  0  0  0  0  0
   11.8130  -25.0293  -10.5417 H   0  0  0  0  0  0  0  0  0  0  0  0
   10.1745  -26.4883  -15.0024 H   0  0  0  0  0  0  0  0  0  0  0  0
    9.8269  -22.8301  -11.3638 H   0  0  0  0  0  0  0  0  0  0  0  0
  1 16  1  0  0  0  0
  1 17  3  0  0  0  0
  2  3  1  0  0  0  0
  2  4  2  0  0  0  0
  3  5  2  0  0  0  0
  4  9  1  0  0  0  0
  5 13  1  0  0  0  0
  6  8  1  0  0  0  0
  6 10  2  0  0  0  0
  7 11  1  0  0  0  0
  7 12  2  0  0  0  0
  8 11  2  0  0  0  0
  8 15  1  0  0  0  0
  9 13  2  0  0  0  0
  9 18  1  0  0  0  0
 10 12  1  0  0  0  0
 10 19  1  0  0  0  0
 11 20  1  0  0  0  0
 12 21  1  0  0  0  0
 13 24  1  0  0  0  0
 14 16  1  0  0  0  0
 14 18  2  0  0  0  0
 14 24  1  0  0  0  0
 15 16  2  0  0  0  0
 19 22  1  0  0  0  0
 19 23  2  0  0  0  0
  2 25  1  0  0  0  0
  3 26  1  0  0  0  0
  4 27  1  0  0  0  0
  5 28  1  0  0  0  0
  6 29  1  0  0  0  0
  7 30  1  0  0  0  0
 15 31  1  0  0  0  0
M  CHG  4  19   1  20  -1  21  -1  22  -1
M  END
> <Hybrid2>
-5.671087265014648

> <Hybrid2>
-5.671087

$$$$
C28297254
  -OEChem-02152218493D

 31 33  0     0  0  0  0  0  0999 V2000
    6.2013  -24.2090   -9.5085 C   0  0  0  0  0  0  0  0  0  0  0  0
    7.3903  -31.0668   -8.6726 C   0  0  0  0  0  0  0  0  0  0  0  0
    6.0038  -31.0876   -8.7754 C   0  0  0  0  0  0  0  0  0  0  0  0
    8.0987  -29.8761   -8.8590 C   0  0  0  0  0  0  0  0  0  0  0  0
    5.2891  -29.9229   -9.0664 C   0  0  0  0  0  0  0  0  0  0  0  0
    9.4735  -25.9369  -12.2191 C   0  0  0  0  0  0  0  0  0  0  0  0
   11.6791  -26.4254  -10.5821 C   0  0  0  0  0  0  0  0  0  0  0  0
    9.5044  -25.4286  -10.9205 C   0  0  0  0  0  0  0  0  0  0  0  0
    7.4010  -28.6849   -9.1541 C   0  0  0  0  0  0  0  0  0  0  0  0
   10.5453  -26.6895  -12.6992 C   0  0  0  0  0  0  0  0  0  0  0  0
   10.6072  -25.6728  -10.1021 C   0  0  0  0  0  0  0  0  0  0  0  0
   11.6481  -26.9337  -11.8807 C   0  0  0  0  0  0  0  0  0  0  0  0
    6.0070  -28.7306   -9.2526 C   0  0  0  0  0  0  0  0  0  0  0  0
    7.0207  -26.5609   -9.6137 C   0  0  0  0  0  0  0  0  0  0  0  0
    8.3398  -24.6452  -10.4836 C   0  0  0  0  0  0  0  0  0  0  0  0
    7.2211  -25.1870   -9.8764 C   0  0  0  0  0  0  0  0  0  0  0  0
    5.3643  -23.4668   -9.1994 N   0  0  0  0  0  0  0  0  0  0  0  0
    7.9667  -27.4356   -9.3637 N   0  0  0  0  0  0  0  0  0  0  0  0
   10.4607  -27.1853  -14.0361 N   0  3  0  0  0  0  0  0  0  0  0  0
   10.6634  -25.2175   -8.9025 O   0  5  0  0  0  0  0  0  0  0  0  0
   12.6486  -27.6233  -12.2964 O   0  5  0  0  0  0  0  0  0  0  0  0
   10.9024  -26.4770  -14.9675 O   0  5  0  0  0  0  0  0  0  0  0  0
    9.9475  -28.3099  -14.2272 O   0  0  0  0  0  0  0  0  0  0  0  0
    5.4157  -27.1527   -9.6181 S   0  0  0  0  0  0  0  0  0  0  0  0
    7.9293  -31.9825   -8.4456 H   0  0  0  0  0  0  0  0  0  0  0  0
    5.4674  -32.0213   -8.6277 H   0  0  0  0  0  0  0  0  0  0  0  0
    9.1819  -29.8714   -8.7764 H   0  0  0  0  0  0  0  0  0  0  0  0
    4.2065  -29.9466   -9.1452 H   0  0  0  0  0  0  0  0  0  0  0  0
    8.6138  -25.7478  -12.8604 H   0  0  0  0  0  0  0  0  0  0  0  0
   12.5426  -26.6167   -9.9413 H   0  0  0  0  0  0  0  0  0  0  0  0
    8.4250  -23.5787  -10.6888 H   0  0  0  0  0  0  0  0  0  0  0  0
  1 16  1  0  0  0  0
  1 17  3  0  0  0  0
  2  3  1  0  0  0  0
  2  4  2  0  0  0  0
  3  5  2  0  0  0  0
  4  9  1  0  0  0  0
  5 13  1  0  0  0  0
  6  8  1  0  0  0  0
  6 10  2  0  0  0  0
  7 11  1  0  0  0  0
  7 12  2  0  0  0  0
  8 11  2  0  0  0  0
  8 15  1  0  0  0  0
  9 13  2  0  0  0  0
  9 18  1  0  0  0  0
 10 12  1  0  0  0  0
 10 19  1  0  0  0  0
 11 20  1  0  0  0  0
 12 21  1  0  0  0  0
 13 24  1  0  0  0  0
 14 16  1  0  0  0  0
 14 18  2  0  0  0  0
 14 24  1  0  0  0  0
 15 16  2  0  0  0  0
 19 22  1  0  0  0  0
 19 23  2  0  0  0  0
  2 25  1  0  0  0  0
  3 26  1  0  0  0  0
  4 27  1  0  0  0  0
  5 28  1  0  0  0  0
  6 29  1  0  0  0  0
  7 30  1  0  0  0  0
 15 31  1  0  0  0  0
M  CHG  4  19   1  20  -1  21  -1  22  -1
M  END
> <Hybrid2>
-5.671087265014648

> <Hybrid2>
-5.102108

$$$$
C16932469
  -OEChem-02152218493D

 26 27  0     0  0  0  0  0  0999 V2000
    7.0817  -25.0803   -9.7315 C   0  0  0  0  0  0  0  0  0  0  0  0
    7.1102  -27.4488   -9.2554 C   0  0  0  0  0  0  0  0  0  0  0  0
    8.4676  -25.0953   -9.8888 C   0  0  0  0  0  0  0  0  0  0  0  0
    8.4961  -27.4637   -9.4128 C   0  0  0  0  0  0  0  0  0  0  0  0
    6.4030  -26.2571   -9.4147 C   0  0  0  0  0  0  0  0  0  0  0  0
    9.1748  -26.2869   -9.7295 C   0  0  0  0  0  0  0  0  0  0  0  0
   13.2400  -27.5976  -10.7096 C   0  0  0  0  0  0  0  0  0  0  0  0
   14.5478  -27.6309  -11.0194 C   0  0  0  0  0  0  0  0  0  0  0  0
   12.4296  -26.5864  -11.4130 C   0  0  0  0  0  0  0  0  0  0  0  0
   14.2090  -25.7881  -12.5986 C   0  0  0  0  0  0  0  0  0  0  0  0
   10.9833  -26.5370  -11.0806 C   0  0  0  0  0  0  0  0  0  0  0  0
    4.9408  -26.2414   -9.2486 C   0  0  0  0  0  0  0  0  0  0  0  0
   12.8636  -25.7423  -12.2891 N   0  0  0  0  0  0  0  0  0  0  0  0
   10.5712  -26.3022   -9.8881 N   0  0  0  0  0  0  0  0  0  0  0  0
   15.0085  -26.7263  -11.9576 N   0  0  0  0  0  0  0  0  0  0  0  0
   15.4803  -28.3633  -10.5993 O   0  5  0  0  0  0  0  0  0  0  0  0
    4.3383  -27.3416   -8.9564 O   0  5  0  0  0  0  0  0  0  0  0  0
    4.3115  -25.1280   -9.4011 O   0  0  0  0  0  0  0  0  0  0  0  0
   14.9228  -24.7530  -13.7217 S   0  0  0  0  0  0  0  0  0  0  0  0
    6.5401  -24.1464   -9.8576 H   0  0  0  0  0  0  0  0  0  0  0  0
    6.5908  -28.3712   -9.0087 H   0  0  0  0  0  0  0  0  0  0  0  0
    8.9882  -24.1735  -10.1354 H   0  0  0  0  0  0  0  0  0  0  0  0
    9.0384  -28.3972   -9.2867 H   0  0  0  0  0  0  0  0  0  0  0  0
   12.7791  -28.2619   -9.9887 H   0  0  0  0  0  0  0  0  0  0  0  0
   10.3187  -26.7169  -11.9360 H   0  0  0  0  0  0  0  0  0  0  0  0
   15.9982  -26.7601  -12.1843 H   0  0  0  0  0  0  0  0  0  0  0  0
  1  3  1  0  0  0  0
  1  5  2  0  0  0  0
  2  4  2  0  0  0  0
  2  5  1  0  0  0  0
  3  6  2  0  0  0  0
  4  6  1  0  0  0  0
  5 12  1  0  0  0  0
  6 14  1  0  0  0  0
  7  8  2  0  0  0  0
  7  9  1  0  0  0  0
  8 15  1  0  0  0  0
  8 16  1  0  0  0  0
  9 11  1  0  0  0  0
  9 13  2  0  0  0  0
 10 13  1  0  0  0  0
 10 15  1  0  0  0  0
 10 19  2  0  0  0  0
 11 14  2  0  0  0  0
 12 17  1  0  0  0  0
 12 18  2  0  0  0  0
  1 20  1  0  0  0  0
  2 21  1  0  0  0  0
  3 22  1  0  0  0  0
  4 23  1  0  0  0  0
  7 24  1  0  0  0  0
 11 25  1  0  0  0  0
 15 26  1  0  0  0  0
M  CHG  2  16  -1  17  -1
M  END
> <Hybrid2>
-2.223022222518921

> <Hybrid2>
-2.223022

$$$$
C16932469
  -OEChem-02152218493D

 26 27  0     0  0  0  0  0  0999 V2000
    7.0308  -25.4201   -9.5578 C   0  0  0  0  0  0  0  0  0  0  0  0
    7.0593  -27.7886   -9.0817 C   0  0  0  0  0  0  0  0  0  0  0  0
    8.4167  -25.4350   -9.7152 C   0  0  0  0  0  0  0  0  0  0  0  0
    8.4452  -27.8035   -9.2391 C   0  0  0  0  0  0  0  0  0  0  0  0
    6.3521  -26.5969   -9.2410 C   0  0  0  0  0  0  0  0  0  0  0  0
    9.1239  -26.6267   -9.5559 C   0  0  0  0  0  0  0  0  0  0  0  0
   13.1891  -27.9374  -10.5359 C   0  0  0  0  0  0  0  0  0  0  0  0
   14.4969  -27.9707  -10.8458 C   0  0  0  0  0  0  0  0  0  0  0  0
   12.3787  -26.9262  -11.2393 C   0  0  0  0  0  0  0  0  0  0  0  0
   14.1581  -26.1279  -12.4249 C   0  0  0  0  0  0  0  0  0  0  0  0
   10.9324  -26.8767  -10.9069 C   0  0  0  0  0  0  0  0  0  0  0  0
    4.8899  -26.5812   -9.0749 C   0  0  0  0  0  0  0  0  0  0  0  0
   12.8127  -26.0821  -12.1155 N   0  0  0  0  0  0  0  0  0  0  0  0
   10.5203  -26.6420   -9.7144 N   0  0  0  0  0  0  0  0  0  0  0  0
   14.9576  -27.0661  -11.7839 N   0  0  0  0  0  0  0  0  0  0  0  0
   15.4294  -28.7031  -10.4257 O   0  5  0  0  0  0  0  0  0  0  0  0
    4.2874  -27.6814   -8.7828 O   0  5  0  0  0  0  0  0  0  0  0  0
    4.2606  -25.4678   -9.2274 O   0  0  0  0  0  0  0  0  0  0  0  0
   14.8719  -25.0928  -13.5481 S   0  0  0  0  0  0  0  0  0  0  0  0
    6.4892  -24.4862   -9.6840 H   0  0  0  0  0  0  0  0  0  0  0  0
    6.5399  -28.7110   -8.8351 H   0  0  0  0  0  0  0  0  0  0  0  0
    8.9373  -24.5133   -9.9617 H   0  0  0  0  0  0  0  0  0  0  0  0
    8.9875  -28.7370   -9.1131 H   0  0  0  0  0  0  0  0  0  0  0  0
   12.7282  -28.6017   -9.8150 H   0  0  0  0  0  0  0  0  0  0  0  0
   10.2678  -27.0566  -11.7623 H   0  0  0  0  0  0  0  0  0  0  0  0
   15.9473  -27.0999  -12.0107 H   0  0  0  0  0  0  0  0  0  0  0  0
  1  3  1  0  0  0  0
  1  5  2  0  0  0  0
  2  4  2  0  0  0  0
  2  5  1  0  0  0  0
  3  6  2  0  0  0  0
  4  6  1  0  0  0  0
  5 12  1  0  0  0  0
  6 14  1  0  0  0  0
  7  8  2  0  0  0  0
  7  9  1  0  0  0  0
  8 15  1  0  0  0  0
  8 16  1  0  0  0  0
  9 11  1  0  0  0  0
  9 13  2  0  0  0  0
 10 13  1  0  0  0  0
 10 15  1  0  0  0  0
 10 19  2  0  0  0  0
 11 14  2  0  0  0  0
 12 17  1  0  0  0  0
 12 18  2  0  0  0  0
  1 20  1  0  0  0  0
  2 21  1  0  0  0  0
  3 22  1  0  0  0  0
  4 23  1  0  0  0  0
  7 24  1  0  0  0  0
 11 25  1  0  0  0  0
 15 26  1  0  0  0  0
M  CHG  2  16  -1  17  -1
M  END
> <Hybrid2>
-2.223022222518921

> <Hybrid2>
-1.967683

$$$$
C35572192
  -OEChem-02152218493D

 24 25  0     0  0  0  0  0  0999 V2000
    8.1398  -28.4657   -9.3484 C   0  0  0  0  0  0  0  0  0  0  0  0
    7.9256  -26.0603   -9.2768 C   0  0  0  0  0  0  0  0  0  0  0  0
    6.8645  -28.5957   -8.7986 C   0  0  0  0  0  0  0  0  0  0  0  0
    6.6502  -26.1902   -8.7270 C   0  0  0  0  0  0  0  0  0  0  0  0
   11.1131  -27.5686   -9.5349 C   0  0  0  0  0  0  0  0  0  0  0  0
    8.6704  -27.1980   -9.5874 C   0  0  0  0  0  0  0  0  0  0  0  0
    6.1197  -27.4580   -8.4879 C   0  0  0  0  0  0  0  0  0  0  0  0
    9.9931  -27.0635  -10.1577 C   0  0  0  0  0  0  0  0  0  0  0  0
   12.4156  -26.7904  -11.2458 C   0  0  0  0  0  0  0  0  0  0  0  0
   11.2956  -26.2859  -11.8692 C   0  0  0  0  0  0  0  0  0  0  0  0
   13.7541  -26.6394  -11.8449 C   0  0  0  0  0  0  0  0  0  0  0  0
   11.3941  -25.5785  -13.1589 C   0  0  0  0  0  0  0  0  0  0  0  0
   12.3445  -27.4411  -10.0677 N   0  0  0  0  0  0  0  0  0  0  0  0
   10.0642  -26.4131  -11.3361 N   0  0  0  0  0  0  0  0  0  0  0  0
   14.7682  -27.1286  -11.2219 O   0  5  0  0  0  0  0  0  0  0  0  0
   11.5713  -24.3041  -13.1519 O   0  5  0  0  0  0  0  0  0  0  0  0
   13.8613  -26.0233  -12.9695 O   0  0  0  0  0  0  0  0  0  0  0  0
   11.2992  -26.2604  -14.2459 O   0  0  0  0  0  0  0  0  0  0  0  0
    4.3912  -27.6333   -7.7439 Br  0  0  0  0  0  0  0  0  0  0  0  0
    8.7082  -29.3621   -9.5851 H   0  0  0  0  0  0  0  0  0  0  0  0
    8.3250  -25.0653   -9.4581 H   0  0  0  0  0  0  0  0  0  0  0  0
    6.4653  -29.5907   -8.6191 H   0  0  0  0  0  0  0  0  0  0  0  0
    6.0831  -25.2938   -8.4907 H   0  0  0  0  0  0  0  0  0  0  0  0
   11.0682  -28.0933   -8.5869 H   0  0  0  0  0  0  0  0  0  0  0  0
  1  3  1  0  0  0  0
  1  6  2  0  0  0  0
  2  4  2  0  0  0  0
  2  6  1  0  0  0  0
  3  7  2  0  0  0  0
  4  7  1  0  0  0  0
  5  8  1  0  0  0  0
  5 13  2  0  0  0  0
  6  8  1  0  0  0  0
  7 19  1  0  0  0  0
  8 14  2  0  0  0  0
  9 10  2  0  0  0  0
  9 11  1  0  0  0  0
  9 13  1  0  0  0  0
 10 12  1  0  0  0  0
 10 14  1  0  0  0  0
 11 15  1  0  0  0  0
 11 17  2  0  0  0  0
 12 16  1  0  0  0  0
 12 18  2  0  0  0  0
  1 20  1  0  0  0  0
  2 21  1  0  0  0  0
  3 22  1  0  0  0  0
  4 23  1  0  0  0  0
  5 24  1  0  0  0  0
M  CHG  2  15  -1  16  -1
M  END
> <Hybrid2>
-3.1636505126953125

> <Hybrid2>
-3.163651

$$$$
C35572192
  -OEChem-02152218493D

 24 25  0     0  0  0  0  0  0999 V2000
   12.3086  -27.5896  -10.0113 C   0  0  0  0  0  0  0  0  0  0  0  0
   11.6862  -26.4740  -12.0619 C   0  0  0  0  0  0  0  0  0  0  0  0
   13.6382  -27.6211  -10.4319 C   0  0  0  0  0  0  0  0  0  0  0  0
   13.0158  -26.5054  -12.4826 C   0  0  0  0  0  0  0  0  0  0  0  0
    9.2468  -28.1328  -10.1127 C   0  0  0  0  0  0  0  0  0  0  0  0
   11.3326  -27.0161  -10.8263 C   0  0  0  0  0  0  0  0  0  0  0  0
   13.9917  -27.0790  -11.6675 C   0  0  0  0  0  0  0  0  0  0  0  0
    9.9537  -26.9835  -10.3898 C   0  0  0  0  0  0  0  0  0  0  0  0
    7.4094  -26.8763   -9.5884 C   0  0  0  0  0  0  0  0  0  0  0  0
    8.1165  -25.7268   -9.8648 C   0  0  0  0  0  0  0  0  0  0  0  0
    6.0041  -26.8187   -9.1471 C   0  0  0  0  0  0  0  0  0  0  0  0
    7.4946  -24.3972   -9.7272 C   0  0  0  0  0  0  0  0  0  0  0  0
    7.9619  -28.0998   -9.7071 N   0  0  0  0  0  0  0  0  0  0  0  0
    9.4013  -25.7598  -10.2707 N   0  0  0  0  0  0  0  0  0  0  0  0
    5.3882  -27.9216   -8.9020 O   0  5  0  0  0  0  0  0  0  0  0  0
    6.8930  -23.8889  -10.7447 O   0  5  0  0  0  0  0  0  0  0  0  0
    5.4426  -25.6676   -9.0226 O   0  0  0  0  0  0  0  0  0  0  0  0
    7.5755  -23.7921   -8.5946 O   0  0  0  0  0  0  0  0  0  0  0  0
   15.7931  -27.1204  -12.2377 Br  0  0  0  0  0  0  0  0  0  0  0  0
   12.0486  -28.0163   -9.0454 H   0  0  0  0  0  0  0  0  0  0  0  0
   10.9372  -26.0226  -12.7081 H   0  0  0  0  0  0  0  0  0  0  0  0
   14.3866  -28.0710   -9.7847 H   0  0  0  0  0  0  0  0  0  0  0  0
   13.2746  -26.0787  -13.4480 H   0  0  0  0  0  0  0  0  0  0  0  0
    9.6806  -29.1224  -10.2050 H   0  0  0  0  0  0  0  0  0  0  0  0
  1  3  1  0  0  0  0
  1  6  2  0  0  0  0
  2  4  2  0  0  0  0
  2  6  1  0  0  0  0
  3  7  2  0  0  0  0
  4  7  1  0  0  0  0
  5  8  1  0  0  0  0
  5 13  2  0  0  0  0
  6  8  1  0  0  0  0
  7 19  1  0  0  0  0
  8 14  2  0  0  0  0
  9 10  2  0  0  0  0
  9 11  1  0  0  0  0
  9 13  1  0  0  0  0
 10 12  1  0  0  0  0
 10 14  1  0  0  0  0
 11 15  1  0  0  0  0
 11 17  2  0  0  0  0
 12 16  1  0  0  0  0
 12 18  2  0  0  0  0
  1 20  1  0  0  0  0
  2 21  1  0  0  0  0
  3 22  1  0  0  0  0
  4 23  1  0  0  0  0
  5 24  1  0  0  0  0
M  CHG  2  15  -1  16  -1
M  END
> <Hybrid2>
-3.1636505126953125

> <Hybrid2>
-2.812655

$$$$
C35644907
  -OEChem-02152218493D

 30 33  0     0  0  0  0  0  0999 V2000
    7.1426  -28.3492   -9.0056 C   0  0  0  0  0  0  0  0  0  0  0  0
   10.2803  -26.9534  -13.7388 C   0  0  0  0  0  0  0  0  0  0  0  0
    6.5194  -27.1930   -8.5362 C   0  0  0  0  0  0  0  0  0  0  0  0
   11.6190  -26.8473  -13.3617 C   0  0  0  0  0  0  0  0  0  0  0  0
    8.1632  -28.2563   -9.9520 C   0  0  0  0  0  0  0  0  0  0  0  0
    9.2832  -27.0049  -12.7647 C   0  0  0  0  0  0  0  0  0  0  0  0
    6.9166  -25.9439   -9.0132 C   0  0  0  0  0  0  0  0  0  0  0  0
   11.9606  -26.7927  -12.0104 C   0  0  0  0  0  0  0  0  0  0  0  0
    8.5603  -27.0072  -10.4290 C   0  0  0  0  0  0  0  0  0  0  0  0
    9.6249  -26.9504  -11.4134 C   0  0  0  0  0  0  0  0  0  0  0  0
    7.9371  -25.8509   -9.9597 C   0  0  0  0  0  0  0  0  0  0  0  0
   10.9636  -26.8443  -11.0363 C   0  0  0  0  0  0  0  0  0  0  0  0
    8.3270  -24.5126  -10.4381 C   0  0  0  0  0  0  0  0  0  0  0  0
   11.3665  -26.7839   -9.6199 C   0  0  0  0  0  0  0  0  0  0  0  0
    7.7451  -23.3781  -10.0048 N   0  5  0  0  0  0  0  0  0  0  0  0
   12.4633  -26.1288   -9.1943 N   0  5  0  0  0  0  0  0  0  0  0  0
    9.2983  -24.3100  -11.3484 N   0  0  0  0  0  0  0  0  0  0  0  0
   10.6721  -27.3778   -8.6308 N   0  0  0  0  0  0  0  0  0  0  0  0
    8.3937  -22.4017  -10.6878 N   0  0  0  0  0  0  0  0  0  0  0  0
   12.4558  -26.3250   -7.8519 N   0  0  0  0  0  0  0  0  0  0  0  0
    9.3268  -22.9614  -11.4950 N   0  0  0  0  0  0  0  0  0  0  0  0
   11.3797  -27.0754   -7.5133 N   0  0  0  0  0  0  0  0  0  0  0  0
    6.8333  -29.3217   -8.6337 H   0  0  0  0  0  0  0  0  0  0  0  0
   10.0145  -26.9956  -14.7911 H   0  0  0  0  0  0  0  0  0  0  0  0
    5.7252  -27.2654   -7.7990 H   0  0  0  0  0  0  0  0  0  0  0  0
   12.3951  -26.8067  -14.1203 H   0  0  0  0  0  0  0  0  0  0  0  0
    8.6380  -29.1681  -10.3068 H   0  0  0  0  0  0  0  0  0  0  0  0
    8.2447  -27.0877  -13.0768 H   0  0  0  0  0  0  0  0  0  0  0  0
    6.4204  -25.0525   -8.6366 H   0  0  0  0  0  0  0  0  0  0  0  0
   13.0090  -26.7098  -11.7338 H   0  0  0  0  0  0  0  0  0  0  0  0
  1  3  1  0  0  0  0
  1  5  2  0  0  0  0
  2  4  1  0  0  0  0
  2  6  2  0  0  0  0
  3  7  2  0  0  0  0
  4  8  2  0  0  0  0
  5  9  1  0  0  0  0
  6 10  1  0  0  0  0
  7 11  1  0  0  0  0
  8 12  1  0  0  0  0
  9 10  1  0  0  0  0
  9 11  2  0  0  0  0
 10 12  2  0  0  0  0
 11 13  1  0  0  0  0
 12 14  1  0  0  0  0
 13 15  1  0  0  0  0
 13 17  2  0  0  0  0
 14 16  1  0  0  0  0
 14 18  2  0  0  0  0
 15 19  1  0  0  0  0
 16 20  1  0  0  0  0
 17 21  1  0  0  0  0
 18 22  1  0  0  0  0
 19 21  2  0  0  0  0
 20 22  2  0  0  0  0
  1 23  1  0  0  0  0
  2 24  1  0  0  0  0
  3 25  1  0  0  0  0
  4 26  1  0  0  0  0
  5 27  1  0  0  0  0
  6 28  1  0  0  0  0
  7 29  1  0  0  0  0
  8 30  1  0  0  0  0
M  CHG  2  15  -1  16  -1
M  END
> <Hybrid2>
-3.5617971420288086

> <Hybrid2>
-3.561797

$$$$
C35644907
  -OEChem-02152218493D

 30 33  0     0  0  0  0  0  0999 V2000
    9.1429  -27.4885  -13.9787 C   0  0  0  0  0  0  0  0  0  0  0  0
    7.6469  -29.7471   -8.7963 C   0  0  0  0  0  0  0  0  0  0  0  0
   10.3778  -26.8548  -13.8407 C   0  0  0  0  0  0  0  0  0  0  0  0
    6.7124  -28.8992   -8.2018 C   0  0  0  0  0  0  0  0  0  0  0  0
    8.4252  -27.8719  -12.8457 C   0  0  0  0  0  0  0  0  0  0  0  0
    8.3745  -29.3152   -9.9053 C   0  0  0  0  0  0  0  0  0  0  0  0
   10.8950  -26.6045  -12.5697 C   0  0  0  0  0  0  0  0  0  0  0  0
    6.5054  -27.6194   -8.7164 C   0  0  0  0  0  0  0  0  0  0  0  0
    8.9424  -27.6216  -11.5747 C   0  0  0  0  0  0  0  0  0  0  0  0
    8.1674  -28.0354  -10.4198 C   0  0  0  0  0  0  0  0  0  0  0  0
   10.1774  -26.9879  -11.4366 C   0  0  0  0  0  0  0  0  0  0  0  0
    7.2329  -27.1874   -9.8254 C   0  0  0  0  0  0  0  0  0  0  0  0
   10.7588  -26.7053  -10.1122 C   0  0  0  0  0  0  0  0  0  0  0  0
    6.9844  -25.8282  -10.3383 C   0  0  0  0  0  0  0  0  0  0  0  0
   12.0854  -26.6598   -9.8856 N   0  5  0  0  0  0  0  0  0  0  0  0
    5.7810  -25.4181  -10.7823 N   0  5  0  0  0  0  0  0  0  0  0  0
   10.0134  -26.4680   -9.0161 N   0  0  0  0  0  0  0  0  0  0  0  0
    7.9388  -24.8807  -10.4061 N   0  0  0  0  0  0  0  0  0  0  0  0
   12.1772  -26.3757   -8.5622 N   0  0  0  0  0  0  0  0  0  0  0  0
    5.9953  -24.1306  -11.1522 N   0  0  0  0  0  0  0  0  0  0  0  0
   10.9324  -26.2605   -8.0398 N   0  0  0  0  0  0  0  0  0  0  0  0
    7.2916  -23.8077  -10.9263 N   0  0  0  0  0  0  0  0  0  0  0  0
    8.7403  -27.6830  -14.9685 H   0  0  0  0  0  0  0  0  0  0  0  0
    7.8081  -30.7435   -8.3952 H   0  0  0  0  0  0  0  0  0  0  0  0
   10.9363  -26.5559  -14.7229 H   0  0  0  0  0  0  0  0  0  0  0  0
    6.1464  -29.2355   -7.3381 H   0  0  0  0  0  0  0  0  0  0  0  0
    7.4641  -28.3649  -12.9720 H   0  0  0  0  0  0  0  0  0  0  0  0
    9.0989  -29.9895  -10.3560 H   0  0  0  0  0  0  0  0  0  0  0  0
   11.8590  -26.1093  -12.4799 H   0  0  0  0  0  0  0  0  0  0  0  0
    5.7733  -26.9710   -8.2408 H   0  0  0  0  0  0  0  0  0  0  0  0
  1  3  1  0  0  0  0
  1  5  2  0  0  0  0
  2  4  1  0  0  0  0
  2  6  2  0  0  0  0
  3  7  2  0  0  0  0
  4  8  2  0  0  0  0
  5  9  1  0  0  0  0
  6 10  1  0  0  0  0
  7 11  1  0  0  0  0
  8 12  1  0  0  0  0
  9 10  1  0  0  0  0
  9 11  2  0  0  0  0
 10 12  2  0  0  0  0
 11 13  1  0  0  0  0
 12 14  1  0  0  0  0
 13 15  1  0  0  0  0
 13 17  2  0  0  0  0
 14 16  1  0  0  0  0
 14 18  2  0  0  0  0
 15 19  1  0  0  0  0
 16 20  1  0  0  0  0
 17 21  1  0  0  0  0
 18 22  1  0  0  0  0
 19 21  2  0  0  0  0
 20 22  2  0  0  0  0
  1 23  1  0  0  0  0
  2 24  1  0  0  0  0
  3 25  1  0  0  0  0
  4 26  1  0  0  0  0
  5 27  1  0  0  0  0
  6 28  1  0  0  0  0
  7 29  1  0  0  0  0
  8 30  1  0  0  0  0
M  CHG  2  15  -1  16  -1
M  END
> <Hybrid2>
-3.5617971420288086

> <Hybrid2>
-2.381634

$$$$
C35731908
  -OEChem-02152218493D

 30 31  0     0  0  0  0  0  0999 V2000
    7.5457  -27.8586   -9.7572 C   0  0  0  0  0  0  0  0  0  0  0  0
    7.5134  -25.4428   -9.7605 C   0  0  0  0  0  0  0  0  0  0  0  0
    8.8400  -27.8420  -10.2770 C   0  0  0  0  0  0  0  0  0  0  0  0
    8.8077  -25.4262  -10.2802 C   0  0  0  0  0  0  0  0  0  0  0  0
    6.8824  -26.6590   -9.4990 C   0  0  0  0  0  0  0  0  0  0  0  0
    9.4710  -26.6258  -10.5385 C   0  0  0  0  0  0  0  0  0  0  0  0
   15.5411  -25.7613  -10.8631 C   0  0  0  0  0  0  0  0  0  0  0  0
   14.7010  -24.8802  -11.4050 C   0  0  0  0  0  0  0  0  0  0  0  0
   15.1985  -27.1933  -11.0282 C   0  0  0  0  0  0  0  0  0  0  0  0
   13.4946  -25.3313  -12.1292 C   0  0  0  0  0  0  0  0  0  0  0  0
    5.5168  -26.6764   -8.9505 C   0  0  0  0  0  0  0  0  0  0  0  0
   12.1415  -27.2426  -12.8932 C   0  0  0  0  0  0  0  0  0  0  0  0
   11.1154  -27.7052  -11.8751 C   0  0  0  0  0  0  0  0  0  0  0  0
   14.1495  -27.6193  -11.6567 N   0  0  0  0  0  0  0  0  0  0  0  0
   13.2991  -26.7014  -12.2060 N   0  0  0  0  0  0  0  0  0  0  0  0
   16.1012  -27.8290  -10.4562 O   0  5  0  0  0  0  0  0  0  0  0  0
    4.9267  -25.5549   -8.7208 O   0  5  0  0  0  0  0  0  0  0  0  0
   12.7425  -24.4871  -12.6153 O   0  0  0  0  0  0  0  0  0  0  0  0
    4.9566  -27.8126   -8.7178 O   0  0  0  0  0  0  0  0  0  0  0  0
   10.7425  -26.6096  -11.0489 O   0  0  0  0  0  0  0  0  0  0  0  0
    7.0632  -28.8117   -9.5567 H   0  0  0  0  0  0  0  0  0  0  0  0
    7.0053  -24.5025   -9.5628 H   0  0  0  0  0  0  0  0  0  0  0  0
    9.3520  -28.7794  -10.4761 H   0  0  0  0  0  0  0  0  0  0  0  0
    9.2934  -24.4753  -10.4817 H   0  0  0  0  0  0  0  0  0  0  0  0
   16.4257  -25.4205  -10.3330 H   0  0  0  0  0  0  0  0  0  0  0  0
   14.8805  -23.8138  -11.3286 H   0  0  0  0  0  0  0  0  0  0  0  0
   12.4747  -28.0715  -13.5257 H   0  0  0  0  0  0  0  0  0  0  0  0
   11.7217  -26.4551  -13.5263 H   0  0  0  0  0  0  0  0  0  0  0  0
   11.5466  -28.4803  -11.2340 H   0  0  0  0  0  0  0  0  0  0  0  0
   10.2176  -28.1020  -12.3602 H   0  0  0  0  0  0  0  0  0  0  0  0
  1  3  1  0  0  0  0
  1  5  2  0  0  0  0
  2  4  2  0  0  0  0
  2  5  1  0  0  0  0
  3  6  2  0  0  0  0
  4  6  1  0  0  0  0
  5 11  1  0  0  0  0
  6 20  1  0  0  0  0
  7  8  2  0  0  0  0
  7  9  1  0  0  0  0
  8 10  1  0  0  0  0
  9 14  2  0  0  0  0
  9 16  1  0  0  0  0
 10 15  1  0  0  0  0
 10 18  2  0  0  0  0
 11 17  1  0  0  0  0
 11 19  2  0  0  0  0
 12 13  1  0  0  0  0
 12 15  1  0  0  0  0
 13 20  1  0  0  0  0
 14 15  1  0  0  0  0
  1 21  1  0  0  0  0
  2 22  1  0  0  0  0
  3 23  1  0  0  0  0
  4 24  1  0  0  0  0
  7 25  1  0  0  0  0
  8 26  1  0  0  0  0
 12 27  1  0  0  0  0
 12 28  1  0  0  0  0
 13 29  1  0  0  0  0
 13 30  1  0  0  0  0
M  CHG  2  16  -1  17  -1
M  END
> <Hybrid2>
-1.289642095565796

> <Hybrid2>
-1.289642

$$$$
C35731908
  -OEChem-02152218493D

 30 31  0     0  0  0  0  0  0999 V2000
   11.7538  -25.7117  -11.9362 C   0  0  0  0  0  0  0  0  0  0  0  0
   12.0020  -27.5179  -10.3509 C   0  0  0  0  0  0  0  0  0  0  0  0
   10.4508  -25.4967  -11.4872 C   0  0  0  0  0  0  0  0  0  0  0  0
   10.6990  -27.3029   -9.9019 C   0  0  0  0  0  0  0  0  0  0  0  0
   12.5294  -26.7223  -11.3681 C   0  0  0  0  0  0  0  0  0  0  0  0
    9.9234  -26.2923  -10.4701 C   0  0  0  0  0  0  0  0  0  0  0  0
    3.9440  -27.2425   -9.4061 C   0  0  0  0  0  0  0  0  0  0  0  0
    3.7401  -25.9765   -9.7688 C   0  0  0  0  0  0  0  0  0  0  0  0
    5.2908  -27.5753   -8.8858 C   0  0  0  0  0  0  0  0  0  0  0  0
    4.8175  -24.9723   -9.6494 C   0  0  0  0  0  0  0  0  0  0  0  0
   13.9042  -26.9492  -11.8417 C   0  0  0  0  0  0  0  0  0  0  0  0
    7.1477  -24.5149   -8.9948 C   0  0  0  0  0  0  0  0  0  0  0  0
    8.1490  -24.7502  -10.1109 C   0  0  0  0  0  0  0  0  0  0  0  0
    6.2545  -26.7181   -8.7696 N   0  0  0  0  0  0  0  0  0  0  0  0
    6.0274  -25.4243   -9.1464 N   0  0  0  0  0  0  0  0  0  0  0  0
    5.2615  -28.7878   -8.6118 O   0  5  0  0  0  0  0  0  0  0  0  0
   14.5993  -27.8886  -11.3002 O   0  5  0  0  0  0  0  0  0  0  0  0
    4.5908  -23.8132   -9.9952 O   0  0  0  0  0  0  0  0  0  0  0  0
   14.3675  -26.2008  -12.7820 O   0  0  0  0  0  0  0  0  0  0  0  0
    8.6434  -26.0809  -10.0290 O   0  0  0  0  0  0  0  0  0  0  0  0
   12.1552  -25.0860  -12.7291 H   0  0  0  0  0  0  0  0  0  0  0  0
   12.5981  -28.3080   -9.9016 H   0  0  0  0  0  0  0  0  0  0  0  0
    9.8511  -24.7080  -11.9333 H   0  0  0  0  0  0  0  0  0  0  0  0
   10.2943  -27.9263   -9.1093 H   0  0  0  0  0  0  0  0  0  0  0  0
    3.1460  -27.9737   -9.4969 H   0  0  0  0  0  0  0  0  0  0  0  0
    2.7822  -25.6522  -10.1591 H   0  0  0  0  0  0  0  0  0  0  0  0
    7.5997  -24.6882   -8.0131 H   0  0  0  0  0  0  0  0  0  0  0  0
    6.7640  -23.4911   -9.0369 H   0  0  0  0  0  0  0  0  0  0  0  0
    8.9974  -24.0673  -10.0032 H   0  0  0  0  0  0  0  0  0  0  0  0
    7.6952  -24.6031  -11.0964 H   0  0  0  0  0  0  0  0  0  0  0  0
  1  3  1  0  0  0  0
  1  5  2  0  0  0  0
  2  4  2  0  0  0  0
  2  5  1  0  0  0  0
  3  6  2  0  0  0  0
  4  6  1  0  0  0  0
  5 11  1  0  0  0  0
  6 20  1  0  0  0  0
  7  8  2  0  0  0  0
  7  9  1  0  0  0  0
  8 10  1  0  0  0  0
  9 14  2  0  0  0  0
  9 16  1  0  0  0  0
 10 15  1  0  0  0  0
 10 18  2  0  0  0  0
 11 17  1  0  0  0  0
 11 19  2  0  0  0  0
 12 13  1  0  0  0  0
 12 15  1  0  0  0  0
 13 20  1  0  0  0  0
 14 15  1  0  0  0  0
  1 21  1  0  0  0  0
  2 22  1  0  0  0  0
  3 23  1  0  0  0  0
  4 24  1  0  0  0  0
  7 25  1  0  0  0  0
  8 26  1  0  0  0  0
 12 27  1  0  0  0  0
 12 28  1  0  0  0  0
 13 29  1  0  0  0  0
 13 30  1  0  0  0  0
M  CHG  2  16  -1  17  -1
M  END
> <Hybrid2>
-1.289642095565796

> <Hybrid2>
-1.044017

$$$$
C35973930
  -OEChem-02152218493D

 29 32  0     1  0  0  0  0  0999 V2000
    7.8580  -29.9714  -10.0062 C   0  0  0  0  0  0  0  0  0  0  0  0
    6.6306  -29.8044   -9.3656 C   0  0  0  0  0  0  0  0  0  0  0  0
    8.7355  -28.8904  -10.1613 C   0  0  0  0  0  0  0  0  0  0  0  0
    6.2651  -28.5510   -8.8899 C   0  0  0  0  0  0  0  0  0  0  0  0
    8.4015  -27.6248   -9.6716 C   0  0  0  0  0  0  0  0  0  0  0  0
    7.1441  -27.4821   -9.0611 C   0  0  0  0  0  0  0  0  0  0  0  0
   10.5325  -26.4130  -10.5441 C   0  0  0  0  0  0  0  0  0  0  0  0
   10.9384  -25.5688  -11.5634 C   0  0  0  0  0  0  0  0  0  0  0  0
   12.7485  -26.7958  -11.4446 C   0  0  0  0  0  0  0  0  0  0  0  0
    7.2576  -25.0410   -9.1073 C   0  0  0  0  0  0  0  0  0  0  0  0
    9.8443  -23.2594   -9.6610 C   0  0  0  0  0  0  0  0  0  0  0  0
    9.2610  -26.3715   -9.7351 C   0  0  1  0  0  0  0  0  0  0  0  0
    8.2853  -25.2638  -10.2138 C   0  0  2  0  0  0  0  0  0  0  0  0
    8.9263  -23.9469  -10.6538 C   0  0  2  0  0  0  0  0  0  0  0  0
   12.1771  -25.8231  -12.1157 N   0  0  0  0  0  0  0  0  0  0  0  0
   13.8534  -27.2034  -11.7229 O   0  5  0  0  0  0  0  0  0  0  0  0
   10.7960  -23.9663   -9.2278 O   0  5  0  0  0  0  0  0  0  0  0  0
    6.8903  -23.9415   -8.7091 O   0  0  0  0  0  0  0  0  0  0  0  0
    9.5365  -22.0636   -9.3951 O   0  0  0  0  0  0  0  0  0  0  0  0
    6.7059  -26.2192   -8.5988 O   0  0  0  0  0  0  0  0  0  0  0  0
   11.8615  -27.4290  -10.1246 S   0  0  0  0  0  0  0  0  0  0  0  0
   10.0041  -24.1815  -12.1041 S   0  0  0  0  0  0  0  0  0  0  0  0
    8.1362  -30.9487  -10.3914 H   0  0  0  0  0  0  0  0  0  0  0  0
    5.9584  -30.6492   -9.2491 H   0  0  0  0  0  0  0  0  0  0  0  0
    9.6663  -29.0777  -10.6835 H   0  0  0  0  0  0  0  0  0  0  0  0
    5.3038  -28.4101   -8.4056 H   0  0  0  0  0  0  0  0  0  0  0  0
    9.5634  -26.1560   -8.6981 H   0  0  0  0  0  0  0  0  0  0  0  0
    7.7027  -25.6221  -11.0790 H   0  0  0  0  0  0  0  0  0  0  0  0
    8.1574  -23.2199  -10.9383 H   0  0  0  0  0  0  0  0  0  0  0  0
  1  2  1  0  0  0  0
  1  3  2  0  0  0  0
  2  4  2  0  0  0  0
  3  5  1  0  0  0  0
  4  6  1  0  0  0  0
  5  6  2  0  0  0  0
  5 12  1  0  0  0  0
  6 20  1  0  0  0  0
  7  8  2  0  0  0  0
  7 12  1  0  0  0  0
  7 21  1  0  0  0  0
  8 15  1  0  0  0  0
  8 22  1  0  0  0  0
  9 15  2  0  0  0  0
  9 16  1  0  0  0  0
  9 21  1  0  0  0  0
 10 13  1  0  0  0  0
 10 18  2  0  0  0  0
 10 20  1  0  0  0  0
 11 14  1  0  0  0  0
 11 17  1  0  0  0  0
 11 19  2  0  0  0  0
 12 13  1  0  0  0  0
 13 14  1  0  0  0  0
 14 22  1  0  0  0  0
  1 23  1  0  0  0  0
  2 24  1  0  0  0  0
  3 25  1  0  0  0  0
  4 26  1  0  0  0  0
 12 27  1  0  0  0  0
 13 28  1  0  0  0  0
 14 29  1  0  0  0  0
M  CHG  2  16  -1  17  -1
M  END
> <Hybrid2>
-6.9320292472839355

> <Hybrid2>
-6.932029

$$$$
C35973930
  -OEChem-02152218493D

 29 32  0     1  0  0  0  0  0999 V2000
    7.7044  -29.9744   -9.8232 C   0  0  0  0  0  0  0  0  0  0  0  0
    6.4771  -29.8075   -9.1825 C   0  0  0  0  0  0  0  0  0  0  0  0
    8.5819  -28.8935   -9.9783 C   0  0  0  0  0  0  0  0  0  0  0  0
    6.1116  -28.5540   -8.7068 C   0  0  0  0  0  0  0  0  0  0  0  0
    8.2479  -27.6278   -9.4886 C   0  0  0  0  0  0  0  0  0  0  0  0
    6.9906  -27.4851   -8.8781 C   0  0  0  0  0  0  0  0  0  0  0  0
   10.3790  -26.4161  -10.3611 C   0  0  0  0  0  0  0  0  0  0  0  0
   10.7849  -25.5719  -11.3803 C   0  0  0  0  0  0  0  0  0  0  0  0
   12.5949  -26.7989  -11.2616 C   0  0  0  0  0  0  0  0  0  0  0  0
    7.1040  -25.0440   -8.9243 C   0  0  0  0  0  0  0  0  0  0  0  0
    9.6908  -23.2624   -9.4780 C   0  0  0  0  0  0  0  0  0  0  0  0
    9.1075  -26.3745   -9.5520 C   0  0  1  0  0  0  0  0  0  0  0  0
    8.1318  -25.2668  -10.0307 C   0  0  2  0  0  0  0  0  0  0  0  0
    8.7727  -23.9499  -10.4708 C   0  0  2  0  0  0  0  0  0  0  0  0
   12.0235  -25.8261  -11.9327 N   0  0  0  0  0  0  0  0  0  0  0  0
   13.6998  -27.2065  -11.5399 O   0  5  0  0  0  0  0  0  0  0  0  0
   10.6425  -23.9694   -9.0448 O   0  5  0  0  0  0  0  0  0  0  0  0
    6.7368  -23.9445   -8.5261 O   0  0  0  0  0  0  0  0  0  0  0  0
    9.3830  -22.0667   -9.2121 O   0  0  0  0  0  0  0  0  0  0  0  0
    6.5524  -26.2222   -8.4158 O   0  0  0  0  0  0  0  0  0  0  0  0
   11.7080  -27.4321   -9.9416 S   0  0  0  0  0  0  0  0  0  0  0  0
    9.8506  -24.1845  -11.9211 S   0  0  0  0  0  0  0  0  0  0  0  0
    7.9827  -30.9518  -10.2084 H   0  0  0  0  0  0  0  0  0  0  0  0
    5.8049  -30.6522   -9.0661 H   0  0  0  0  0  0  0  0  0  0  0  0
    9.5127  -29.0808  -10.5005 H   0  0  0  0  0  0  0  0  0  0  0  0
    5.1503  -28.4132   -8.2226 H   0  0  0  0  0  0  0  0  0  0  0  0
    9.4099  -26.1590   -8.5151 H   0  0  0  0  0  0  0  0  0  0  0  0
    7.5492  -25.6251  -10.8960 H   0  0  0  0  0  0  0  0  0  0  0  0
    8.0038  -23.2229  -10.7553 H   0  0  0  0  0  0  0  0  0  0  0  0
  1  2  1  0  0  0  0
  1  3  2  0  0  0  0
  2  4  2  0  0  0  0
  3  5  1  0  0  0  0
  4  6  1  0  0  0  0
  5  6  2  0  0  0  0
  5 12  1  0  0  0  0
  6 20  1  0  0  0  0
  7  8  2  0  0  0  0
  7 12  1  0  0  0  0
  7 21  1  0  0  0  0
  8 15  1  0  0  0  0
  8 22  1  0  0  0  0
  9 15  2  0  0  0  0
  9 16  1  0  0  0  0
  9 21  1  0  0  0  0
 10 13  1  0  0  0  0
 10 18  2  0  0  0  0
 10 20  1  0  0  0  0
 11 14  1  0  0  0  0
 11 17  1  0  0  0  0
 11 19  2  0  0  0  0
 12 13  1  0  0  0  0
 13 14  1  0  0  0  0
 14 22  1  0  0  0  0
  1 23  1  0  0  0  0
  2 24  1  0  0  0  0
  3 25  1  0  0  0  0
  4 26  1  0  0  0  0
 12 27  1  0  0  0  0
 13 28  1  0  0  0  0
 14 29  1  0  0  0  0
M  CHG  2  16  -1  17  -1
M  END
> <Hybrid2>
-6.9320292472839355

> <Hybrid2>
-6.797482

$$$$
C37370972
  -OEChem-02152218493D

 29 30  0     0  0  0  0  0  0999 V2000
    8.9733  -28.6344   -9.3351 C   0  0  0  0  0  0  0  0  0  0  0  0
   13.2797  -26.8877  -12.9361 C   0  0  0  0  0  0  0  0  0  0  0  0
    7.7901  -29.2602   -9.6608 C   0  0  0  0  0  0  0  0  0  0  0  0
    8.8468  -27.2152   -9.3384 C   0  0  0  0  0  0  0  0  0  0  0  0
    7.5716  -26.8103   -9.6667 C   0  0  0  0  0  0  0  0  0  0  0  0
   13.3765  -27.0919  -11.5748 C   0  0  0  0  0  0  0  0  0  0  0  0
   12.1964  -26.1409  -13.3522 C   0  0  0  0  0  0  0  0  0  0  0  0
   11.4779  -25.8964  -11.2096 C   0  0  0  0  0  0  0  0  0  0  0  0
    7.1081  -25.3509   -9.7608 C   0  0  0  0  0  0  0  0  0  0  0  0
   14.5154  -27.8870  -11.0299 C   0  0  0  0  0  0  0  0  0  0  0  0
   12.0084  -25.8655  -14.8061 C   0  0  0  0  0  0  0  0  0  0  0  0
   12.4902  -26.6090  -10.6795 N   0  0  0  0  0  0  0  0  0  0  0  0
   11.2727  -25.6281  -12.5132 N   0  0  0  0  0  0  0  0  0  0  0  0
   10.5803  -25.3996  -10.3477 N   0  5  0  0  0  0  0  0  0  0  0  0
    6.6517  -24.8417   -8.7035 O   0  5  0  0  0  0  0  0  0  0  0  0
    7.2274  -24.7994  -10.8864 O   0  0  0  0  0  0  0  0  0  0  0  0
    9.6310  -25.2193   -7.9510 O   0  0  0  0  0  0  0  0  0  0  0  0
   11.2282  -27.0183   -8.4400 O   0  0  0  0  0  0  0  0  0  0  0  0
    6.5336  -28.1383   -9.9688 S   0  0  0  0  0  0  0  0  0  0  0  0
   10.2142  -26.1027   -8.9586 S   0  0  0  0  0  0  0  0  0  0  0  0
    9.8835  -29.1740   -9.1062 H   0  0  0  0  0  0  0  0  0  0  0  0
   14.0076  -27.2858  -13.6324 H   0  0  0  0  0  0  0  0  0  0  0  0
    7.6022  -30.3223   -9.7315 H   0  0  0  0  0  0  0  0  0  0  0  0
   15.3637  -27.2307  -10.8013 H   0  0  0  0  0  0  0  0  0  0  0  0
   14.2278  -28.4169  -10.1128 H   0  0  0  0  0  0  0  0  0  0  0  0
   14.8474  -28.6490  -11.7467 H   0  0  0  0  0  0  0  0  0  0  0  0
   11.4028  -26.6542  -15.2688 H   0  0  0  0  0  0  0  0  0  0  0  0
   11.5076  -24.9022  -14.9674 H   0  0  0  0  0  0  0  0  0  0  0  0
   12.9720  -25.8141  -15.3295 H   0  0  0  0  0  0  0  0  0  0  0  0
  1  3  2  0  0  0  0
  1  4  1  0  0  0  0
  2  6  1  0  0  0  0
  2  7  2  0  0  0  0
  3 19  1  0  0  0  0
  4  5  2  0  0  0  0
  4 20  1  0  0  0  0
  5  9  1  0  0  0  0
  5 19  1  0  0  0  0
  6 10  1  0  0  0  0
  6 12  2  0  0  0  0
  7 11  1  0  0  0  0
  7 13  1  0  0  0  0
  8 12  1  0  0  0  0
  8 13  2  0  0  0  0
  8 14  1  0  0  0  0
  9 15  1  0  0  0  0
  9 16  2  0  0  0  0
 14 20  1  0  0  0  0
 17 20  2  0  0  0  0
 18 20  2  0  0  0  0
  1 21  1  0  0  0  0
  2 22  1  0  0  0  0
  3 23  1  0  0  0  0
 10 24  1  0  0  0  0
 10 25  1  0  0  0  0
 10 26  1  0  0  0  0
 11 27  1  0  0  0  0
 11 28  1  0  0  0  0
 11 29  1  0  0  0  0
M  CHG  2  14  -1  15  -1
M  END
> <Hybrid2>
-1.5365749597549438

> <Hybrid2>
-1.536575

$$$$
C37370972
  -OEChem-02152218493D

 29 30  0     0  0  0  0  0  0999 V2000
   11.2970  -25.5947  -10.2624 C   0  0  0  0  0  0  0  0  0  0  0  0
    6.9521  -28.1333   -8.7937 C   0  0  0  0  0  0  0  0  0  0  0  0
   12.3214  -26.4630  -10.5694 C   0  0  0  0  0  0  0  0  0  0  0  0
   10.4570  -25.3399  -11.3847 C   0  0  0  0  0  0  0  0  0  0  0  0
   10.8716  -26.0230  -12.5070 C   0  0  0  0  0  0  0  0  0  0  0  0
    6.4715  -26.8494   -8.6362 C   0  0  0  0  0  0  0  0  0  0  0  0
    7.7251  -28.3479   -9.9165 C   0  0  0  0  0  0  0  0  0  0  0  0
    7.4865  -26.1799  -10.5568 C   0  0  0  0  0  0  0  0  0  0  0  0
   10.1856  -25.9628  -13.8778 C   0  0  0  0  0  0  0  0  0  0  0  0
    5.6266  -26.5209   -7.4510 C   0  0  0  0  0  0  0  0  0  0  0  0
    8.2909  -29.7043  -10.1712 C   0  0  0  0  0  0  0  0  0  0  0  0
    6.7201  -25.8445   -9.5015 N   0  0  0  0  0  0  0  0  0  0  0  0
    8.0132  -27.3905  -10.8225 N   0  0  0  0  0  0  0  0  0  0  0  0
    7.7552  -25.2044  -11.4352 N   0  5  0  0  0  0  0  0  0  0  0  0
    9.2816  -26.8140  -14.0867 O   0  5  0  0  0  0  0  0  0  0  0  0
   10.5911  -25.0681  -14.6654 O   0  0  0  0  0  0  0  0  0  0  0  0
    9.1930  -23.5890  -10.0207 O   0  0  0  0  0  0  0  0  0  0  0  0
    9.2514  -23.3657  -12.4648 O   0  0  0  0  0  0  0  0  0  0  0  0
   12.2680  -26.9671  -12.2051 S   0  0  0  0  0  0  0  0  0  0  0  0
    9.0276  -24.2425  -11.3173 S   0  0  0  0  0  0  0  0  0  0  0  0
   11.1613  -25.1657   -9.2778 H   0  0  0  0  0  0  0  0  0  0  0  0
    6.7383  -28.9208   -8.0814 H   0  0  0  0  0  0  0  0  0  0  0  0
   13.0983  -26.8270   -9.9119 H   0  0  0  0  0  0  0  0  0  0  0  0
    6.2543  -26.1866   -6.6162 H   0  0  0  0  0  0  0  0  0  0  0  0
    4.9053  -25.7274   -7.6843 H   0  0  0  0  0  0  0  0  0  0  0  0
    5.0456  -27.3925   -7.1230 H   0  0  0  0  0  0  0  0  0  0  0  0
    7.5927  -30.3032  -10.7686 H   0  0  0  0  0  0  0  0  0  0  0  0
    9.2456  -29.6430  -10.7093 H   0  0  0  0  0  0  0  0  0  0  0  0
    8.4895  -30.2358   -9.2314 H   0  0  0  0  0  0  0  0  0  0  0  0
  1  3  2  0  0  0  0
  1  4  1  0  0  0  0
  2  6  1  0  0  0  0
  2  7  2  0  0  0  0
  3 19  1  0  0  0  0
  4  5  2  0  0  0  0
  4 20  1  0  0  0  0
  5  9  1  0  0  0  0
  5 19  1  0  0  0  0
  6 10  1  0  0  0  0
  6 12  2  0  0  0  0
  7 11  1  0  0  0  0
  7 13  1  0  0  0  0
  8 12  1  0  0  0  0
  8 13  2  0  0  0  0
  8 14  1  0  0  0  0
  9 15  1  0  0  0  0
  9 16  2  0  0  0  0
 14 20  1  0  0  0  0
 17 20  2  0  0  0  0
 18 20  2  0  0  0  0
  1 21  1  0  0  0  0
  2 22  1  0  0  0  0
  3 23  1  0  0  0  0
 10 24  1  0  0  0  0
 10 25  1  0  0  0  0
 10 26  1  0  0  0  0
 11 27  1  0  0  0  0
 11 28  1  0  0  0  0
 11 29  1  0  0  0  0
M  CHG  2  14  -1  15  -1
M  END
> <Hybrid2>
-1.5365749597549438

> <Hybrid2>
-1.101497

$$$$
C37462700
  -OEChem-02152218493D

 37 38  0     1  0  0  0  0  0999 V2000
    8.4034  -28.1279   -9.8063 C   0  0  0  0  0  0  0  0  0  0  0  0
    7.5325  -29.1324   -9.2938 C   0  0  0  0  0  0  0  0  0  0  0  0
    6.5596  -28.6045   -8.4738 C   0  0  0  0  0  0  0  0  0  0  0  0
    8.0627  -26.8704   -9.3586 C   0  0  0  0  0  0  0  0  0  0  0  0
    5.4696  -29.4231   -7.7706 C   0  0  0  0  0  0  0  0  0  0  0  0
   11.7178  -25.3637   -9.5669 C   0  0  0  0  0  0  0  0  0  0  0  0
   11.9561  -26.2963  -11.8305 C   0  0  0  0  0  0  0  0  0  0  0  0
   12.9600  -26.1560   -9.1592 C   0  0  2  0  0  0  0  0  0  0  0  0
   13.1902  -27.0533  -11.3394 C   0  0  1  0  0  0  0  0  0  0  0  0
    7.6713  -30.5737   -9.6151 C   0  0  0  0  0  0  0  0  0  0  0  0
   13.7411  -25.4283   -8.0745 C   0  0  0  0  0  0  0  0  0  0  0  0
   14.2039  -27.2322  -12.4605 C   0  0  0  0  0  0  0  0  0  0  0  0
    8.7163  -25.7304   -9.6909 N   0  5  0  0  0  0  0  0  0  0  0  0
   11.0323  -26.0895  -10.6764 N   0  0  0  0  0  0  0  0  0  0  0  0
    4.3950  -29.5842   -8.4071 O   0  5  0  0  0  0  0  0  0  0  0  0
    5.7512  -29.8572   -6.6226 O   0  0  0  0  0  0  0  0  0  0  0  0
    9.0163  -26.3876  -12.1668 O   0  0  0  0  0  0  0  0  0  0  0  0
    9.6688  -24.1150  -11.4601 O   0  0  0  0  0  0  0  0  0  0  0  0
   13.8269  -26.3149  -10.2892 O   0  0  0  0  0  0  0  0  0  0  0  0
    6.6982  -26.9043   -8.3245 S   0  0  0  0  0  0  0  0  0  0  0  0
    9.4691  -25.5167  -11.0770 S   0  0  0  0  0  0  0  0  0  0  0  0
    9.2363  -28.3262  -10.4714 H   0  0  0  0  0  0  0  0  0  0  0  0
   11.0373  -25.2705   -8.7138 H   0  0  0  0  0  0  0  0  0  0  0  0
   11.9914  -24.3611   -9.9174 H   0  0  0  0  0  0  0  0  0  0  0  0
   12.2339  -25.3169  -12.2385 H   0  0  0  0  0  0  0  0  0  0  0  0
   11.4476  -26.8760  -12.6083 H   0  0  0  0  0  0  0  0  0  0  0  0
   12.6789  -27.1500   -8.7881 H   0  0  0  0  0  0  0  0  0  0  0  0
   12.9090  -28.0416  -10.9536 H   0  0  0  0  0  0  0  0  0  0  0  0
    8.3261  -31.0744   -8.8872 H   0  0  0  0  0  0  0  0  0  0  0  0
    6.6978  -31.0875   -9.6082 H   0  0  0  0  0  0  0  0  0  0  0  0
    8.0965  -30.7274  -10.6188 H   0  0  0  0  0  0  0  0  0  0  0  0
   14.0308  -24.4364   -8.4231 H   0  0  0  0  0  0  0  0  0  0  0  0
   14.6412  -25.9895   -7.8209 H   0  0  0  0  0  0  0  0  0  0  0  0
   13.1278  -25.3220   -7.1789 H   0  0  0  0  0  0  0  0  0  0  0  0
   14.4972  -26.2601  -12.8586 H   0  0  0  0  0  0  0  0  0  0  0  0
   13.7706  -27.8266  -13.2655 H   0  0  0  0  0  0  0  0  0  0  0  0
   15.0918  -27.7416  -12.0844 H   0  0  0  0  0  0  0  0  0  0  0  0
  1  2  1  0  0  0  0
  1  4  2  0  0  0  0
  2  3  2  0  0  0  0
  2 10  1  0  0  0  0
  3  5  1  0  0  0  0
  3 20  1  0  0  0  0
  4 13  1  0  0  0  0
  4 20  1  0  0  0  0
  5 15  1  0  0  0  0
  5 16  2  0  0  0  0
  6  8  1  0  0  0  0
  6 14  1  0  0  0  0
  7  9  1  0  0  0  0
  7 14  1  0  0  0  0
  8 11  1  0  0  0  0
  8 19  1  0  0  0  0
  9 12  1  0  0  0  0
  9 19  1  0  0  0  0
 13 21  1  0  0  0  0
 14 21  1  0  0  0  0
 17 21  2  0  0  0  0
 18 21  2  0  0  0  0
  1 22  1  0  0  0  0
  6 23  1  0  0  0  0
  6 24  1  0  0  0  0
  7 25  1  0  0  0  0
  7 26  1  0  0  0  0
  8 27  1  0  0  0  0
  9 28  1  0  0  0  0
 10 29  1  0  0  0  0
 10 30  1  0  0  0  0
 10 31  1  0  0  0  0
 11 32  1  0  0  0  0
 11 33  1  0  0  0  0
 11 34  1  0  0  0  0
 12 35  1  0  0  0  0
 12 36  1  0  0  0  0
 12 37  1  0  0  0  0
M  CHG  2  13  -1  15  -1
M  END
> <Hybrid2>
-2.201519012451172

> <Hybrid2>
-2.201519

$$$$
C37462700
  -OEChem-02152218493D

 37 38  0     1  0  0  0  0  0999 V2000
    8.4144  -29.2892   -9.9742 C   0  0  0  0  0  0  0  0  0  0  0  0
    7.4967  -29.8803   -9.0585 C   0  0  0  0  0  0  0  0  0  0  0  0
    6.4913  -29.0098   -8.6991 C   0  0  0  0  0  0  0  0  0  0  0  0
    8.0753  -27.9894  -10.2801 C   0  0  0  0  0  0  0  0  0  0  0  0
    5.3483  -29.3448   -7.7327 C   0  0  0  0  0  0  0  0  0  0  0  0
   11.7878  -27.0226  -11.2576 C   0  0  0  0  0  0  0  0  0  0  0  0
   11.0221  -27.1005   -8.9213 C   0  0  0  0  0  0  0  0  0  0  0  0
   13.2191  -27.1854  -10.7459 C   0  0  2  0  0  0  0  0  0  0  0  0
   12.4816  -27.2616   -8.4961 C   0  0  1  0  0  0  0  0  0  0  0  0
    7.6237  -31.2714   -8.5599 C   0  0  0  0  0  0  0  0  0  0  0  0
   14.0770  -27.9394  -11.7517 C   0  0  0  0  0  0  0  0  0  0  0  0
   12.5925  -28.0935   -7.2265 C   0  0  0  0  0  0  0  0  0  0  0  0
    8.7689  -27.1906  -11.1274 N   0  5  0  0  0  0  0  0  0  0  0  0
   10.9799  -26.3395  -10.2048 N   0  0  0  0  0  0  0  0  0  0  0  0
    4.3070  -29.8311   -8.2476 O   0  5  0  0  0  0  0  0  0  0  0  0
    5.5580  -29.1019   -6.5151 O   0  0  0  0  0  0  0  0  0  0  0  0
    9.6810  -24.8729  -11.7973 O   0  0  0  0  0  0  0  0  0  0  0  0
    8.8444  -25.1941   -9.4980 O   0  0  0  0  0  0  0  0  0  0  0  0
   13.2158  -27.9362   -9.5253 O   0  0  0  0  0  0  0  0  0  0  0  0
    6.6559  -27.4869   -9.4645 S   0  0  0  0  0  0  0  0  0  0  0  0
    9.4281  -25.8075  -10.6956 S   0  0  0  0  0  0  0  0  0  0  0  0
    9.2782  -29.7997  -10.3849 H   0  0  0  0  0  0  0  0  0  0  0  0
   11.7841  -26.4196  -12.1719 H   0  0  0  0  0  0  0  0  0  0  0  0
   11.3358  -27.9988  -11.4711 H   0  0  0  0  0  0  0  0  0  0  0  0
   10.5490  -28.0778   -9.0764 H   0  0  0  0  0  0  0  0  0  0  0  0
   10.4672  -26.5533   -8.1518 H   0  0  0  0  0  0  0  0  0  0  0  0
   13.6745  -26.2050  -10.5553 H   0  0  0  0  0  0  0  0  0  0  0  0
   12.9431  -26.2814   -8.3201 H   0  0  0  0  0  0  0  0  0  0  0  0
    8.2276  -31.3030   -7.6414 H   0  0  0  0  0  0  0  0  0  0  0  0
    6.6411  -31.7150   -8.3377 H   0  0  0  0  0  0  0  0  0  0  0  0
    8.0999  -31.9281   -9.3042 H   0  0  0  0  0  0  0  0  0  0  0  0
   13.6416  -28.9183  -11.9557 H   0  0  0  0  0  0  0  0  0  0  0  0
   15.0839  -28.0772  -11.3561 H   0  0  0  0  0  0  0  0  0  0  0  0
   14.1386  -27.3795  -12.6855 H   0  0  0  0  0  0  0  0  0  0  0  0
   12.1391  -29.0734   -7.3802 H   0  0  0  0  0  0  0  0  0  0  0  0
   12.0794  -27.5927   -6.4048 H   0  0  0  0  0  0  0  0  0  0  0  0
   13.6409  -28.2284   -6.9578 H   0  0  0  0  0  0  0  0  0  0  0  0
  1  2  1  0  0  0  0
  1  4  2  0  0  0  0
  2  3  2  0  0  0  0
  2 10  1  0  0  0  0
  3  5  1  0  0  0  0
  3 20  1  0  0  0  0
  4 13  1  0  0  0  0
  4 20  1  0  0  0  0
  5 15  1  0  0  0  0
  5 16  2  0  0  0  0
  6  8  1  0  0  0  0
  6 14  1  0  0  0  0
  7  9  1  0  0  0  0
  7 14  1  0  0  0  0
  8 11  1  0  0  0  0
  8 19  1  0  0  0  0
  9 12  1  0  0  0  0
  9 19  1  0  0  0  0
 13 21  1  0  0  0  0
 14 21  1  0  0  0  0
 17 21  2  0  0  0  0
 18 21  2  0  0  0  0
  1 22  1  0  0  0  0
  6 23  1  0  0  0  0
  6 24  1  0  0  0  0
  7 25  1  0  0  0  0
  7 26  1  0  0  0  0
  8 27  1  0  0  0  0
  9 28  1  0  0  0  0
 10 29  1  0  0  0  0
 10 30  1  0  0  0  0
 10 31  1  0  0  0  0
 11 32  1  0  0  0  0
 11 33  1  0  0  0  0
 11 34  1  0  0  0  0
 12 35  1  0  0  0  0
 12 36  1  0  0  0  0
 12 37  1  0  0  0  0
M  CHG  2  13  -1  15  -1
M  END
> <Hybrid2>
-2.201519012451172

> <Hybrid2>
-2.001078

$$$$
C37464926
  -OEChem-02152218493D

 26 27  0     0  0  0  0  0  0999 V2000
    7.6104  -30.2571  -10.2504 C   0  0  0  0  0  0  0  0  0  0  0  0
   11.5046  -27.5589   -8.7888 C   0  0  0  0  0  0  0  0  0  0  0  0
   12.2223  -27.4569   -9.9804 C   0  0  0  0  0  0  0  0  0  0  0  0
   10.1774  -27.1326   -8.7353 C   0  0  0  0  0  0  0  0  0  0  0  0
    6.1058  -30.2623   -8.2339 C   0  0  0  0  0  0  0  0  0  0  0  0
   10.2860  -26.5022  -11.0651 C   0  0  0  0  0  0  0  0  0  0  0  0
    5.3616  -29.3973   -7.4623 C   0  0  0  0  0  0  0  0  0  0  0  0
    6.7719  -29.5909   -9.2997 C   0  0  0  0  0  0  0  0  0  0  0  0
   11.6131  -26.9285  -11.1186 C   0  0  0  0  0  0  0  0  0  0  0  0
    9.5682  -26.6043   -9.8734 C   0  0  0  0  0  0  0  0  0  0  0  0
    6.5111  -28.2382   -9.3021 C   0  0  0  0  0  0  0  0  0  0  0  0
   12.3709  -26.8215  -12.3758 C   0  0  0  0  0  0  0  0  0  0  0  0
    8.2900  -30.7969  -11.0209 N   0  0  0  0  0  0  0  0  0  0  0  0
    6.9984  -27.3375  -10.1898 N   0  5  0  0  0  0  0  0  0  0  0  0
   11.7854  -26.3305  -13.4125 O   0  5  0  0  0  0  0  0  0  0  0  0
   13.5945  -27.2227  -12.3980 O   0  0  0  0  0  0  0  0  0  0  0  0
    7.7212  -25.6092   -8.4167 O   0  0  0  0  0  0  0  0  0  0  0  0
    7.8317  -24.9695  -10.7842 O   0  0  0  0  0  0  0  0  0  0  0  0
    5.4675  -27.7828   -8.0232 S   0  0  0  0  0  0  0  0  0  0  0  0
    7.9076  -26.0699   -9.8053 S   0  0  0  0  0  0  0  0  0  0  0  0
   11.9787  -27.9706   -7.9027 H   0  0  0  0  0  0  0  0  0  0  0  0
   13.2555  -27.7927  -10.0114 H   0  0  0  0  0  0  0  0  0  0  0  0
    9.6275  -27.2164   -7.8014 H   0  0  0  0  0  0  0  0  0  0  0  0
    6.1635  -31.3256   -8.0358 H   0  0  0  0  0  0  0  0  0  0  0  0
    9.8109  -26.0907  -11.9526 H   0  0  0  0  0  0  0  0  0  0  0  0
    4.7610  -29.6363   -6.5959 H   0  0  0  0  0  0  0  0  0  0  0  0
  1  8  1  0  0  0  0
  1 13  3  0  0  0  0
  2  3  1  0  0  0  0
  2  4  2  0  0  0  0
  3  9  2  0  0  0  0
  4 10  1  0  0  0  0
  5  7  2  0  0  0  0
  5  8  1  0  0  0  0
  6  9  1  0  0  0  0
  6 10  2  0  0  0  0
  7 19  1  0  0  0  0
  8 11  2  0  0  0  0
  9 12  1  0  0  0  0
 10 20  1  0  0  0  0
 11 14  1  0  0  0  0
 11 19  1  0  0  0  0
 12 15  1  0  0  0  0
 12 16  2  0  0  0  0
 14 20  1  0  0  0  0
 17 20  2  0  0  0  0
 18 20  2  0  0  0  0
  2 21  1  0  0  0  0
  3 22  1  0  0  0  0
  4 23  1  0  0  0  0
  5 24  1  0  0  0  0
  6 25  1  0  0  0  0
  7 26  1  0  0  0  0
M  CHG  2  14  -1  15  -1
M  END
> <Hybrid2>
-4.105424404144287

> <Hybrid2>
-4.105424

$$$$
C37464926
  -OEChem-02152218493D

 26 27  0     0  0  0  0  0  0999 V2000
    7.3414  -30.1653   -9.7294 C   0  0  0  0  0  0  0  0  0  0  0  0
   11.1319  -27.1551   -8.6561 C   0  0  0  0  0  0  0  0  0  0  0  0
   11.9556  -27.3561   -9.7637 C   0  0  0  0  0  0  0  0  0  0  0  0
    9.8125  -26.7389   -8.8344 C   0  0  0  0  0  0  0  0  0  0  0  0
    5.6615  -29.6656   -7.9243 C   0  0  0  0  0  0  0  0  0  0  0  0
   10.1406  -26.7244  -11.2280 C   0  0  0  0  0  0  0  0  0  0  0  0
    4.8652  -28.6374   -7.4702 C   0  0  0  0  0  0  0  0  0  0  0  0
    6.4317  -29.2842   -9.0608 C   0  0  0  0  0  0  0  0  0  0  0  0
   11.4600  -27.1407  -11.0496 C   0  0  0  0  0  0  0  0  0  0  0  0
    9.3169  -26.5235  -10.1204 C   0  0  0  0  0  0  0  0  0  0  0  0
    6.1945  -27.9790   -9.4322 C   0  0  0  0  0  0  0  0  0  0  0  0
   12.3296  -27.3532  -12.2180 C   0  0  0  0  0  0  0  0  0  0  0  0
    8.0786  -30.8792  -10.2713 N   0  0  0  0  0  0  0  0  0  0  0  0
    6.7744  -27.3317  -10.4721 N   0  5  0  0  0  0  0  0  0  0  0  0
   11.8479  -27.1478  -13.3946 O   0  5  0  0  0  0  0  0  0  0  0  0
   13.5434  -27.7380  -12.0253 O   0  0  0  0  0  0  0  0  0  0  0  0
    7.3629  -25.2024   -9.1406 O   0  0  0  0  0  0  0  0  0  0  0  0
    7.6966  -25.1885  -11.5727 O   0  0  0  0  0  0  0  0  0  0  0  0
    5.0475  -27.2192   -8.4126 S   0  0  0  0  0  0  0  0  0  0  0  0
    7.6660  -26.0015  -10.3426 S   0  0  0  0  0  0  0  0  0  0  0  0
   11.5176  -27.3232   -7.6549 H   0  0  0  0  0  0  0  0  0  0  0  0
   12.9817  -27.6812   -9.6136 H   0  0  0  0  0  0  0  0  0  0  0  0
    9.1795  -26.5851   -7.9643 H   0  0  0  0  0  0  0  0  0  0  0  0
    5.6837  -30.6424   -7.4569 H   0  0  0  0  0  0  0  0  0  0  0  0
    9.7542  -26.5570  -12.2307 H   0  0  0  0  0  0  0  0  0  0  0  0
    4.1852  -28.6512   -6.6301 H   0  0  0  0  0  0  0  0  0  0  0  0
  1  8  1  0  0  0  0
  1 13  3  0  0  0  0
  2  3  1  0  0  0  0
  2  4  2  0  0  0  0
  3  9  2  0  0  0  0
  4 10  1  0  0  0  0
  5  7  2  0  0  0  0
  5  8  1  0  0  0  0
  6  9  1  0  0  0  0
  6 10  2  0  0  0  0
  7 19  1  0  0  0  0
  8 11  2  0  0  0  0
  9 12  1  0  0  0  0
 10 20  1  0  0  0  0
 11 14  1  0  0  0  0
 11 19  1  0  0  0  0
 12 15  1  0  0  0  0
 12 16  2  0  0  0  0
 14 20  1  0  0  0  0
 17 20  2  0  0  0  0
 18 20  2  0  0  0  0
  2 21  1  0  0  0  0
  3 22  1  0  0  0  0
  4 23  1  0  0  0  0
  5 24  1  0  0  0  0
  6 25  1  0  0  0  0
  7 26  1  0  0  0  0
M  CHG  2  14  -1  15  -1
M  END
> <Hybrid2>
-4.105424404144287

> <Hybrid2>
-3.544766

$$$$
C37624502
  -OEChem-02152218493D

 21 21  0     0  0  0  0  0  0999 V2000
    9.5564  -26.1364  -10.4305 C   0  0  0  0  0  0  0  0  0  0  0  0
    8.6130  -27.0742   -9.9430 C   0  0  0  0  0  0  0  0  0  0  0  0
    8.9433  -24.9030  -10.4395 C   0  0  0  0  0  0  0  0  0  0  0  0
    7.4520  -26.3853   -9.6691 C   0  0  0  0  0  0  0  0  0  0  0  0
   10.8857  -26.3887  -10.8389 C   0  0  0  0  0  0  0  0  0  0  0  0
   11.4209  -26.1814  -12.0868 C   0  0  0  0  0  0  0  0  0  0  0  0
    9.5501  -23.5701  -10.8820 C   0  0  0  0  0  0  0  0  0  0  0  0
    6.1493  -26.9669   -9.1221 C   0  0  0  0  0  0  0  0  0  0  0  0
    8.8279  -28.5259   -9.7593 C   0  0  0  0  0  0  0  0  0  0  0  0
    7.6643  -25.0664   -9.9750 N   0  0  0  0  0  0  0  0  0  0  0  0
    8.8006  -22.5588  -10.8057 O   0  5  0  0  0  0  0  0  0  0  0  0
    5.2009  -26.1543   -8.9423 O   0  5  0  0  0  0  0  0  0  0  0  0
   10.7449  -23.6026  -11.2836 O   0  0  0  0  0  0  0  0  0  0  0  0
    6.1366  -28.2087   -8.8980 O   0  0  0  0  0  0  0  0  0  0  0  0
   13.1722  -26.5360  -12.5929 Br  0  0  0  0  0  0  0  0  0  0  0  0
   11.5964  -26.8187  -10.0951 H   0  0  0  0  0  0  0  0  0  0  0  0
   10.8261  -25.7871  -12.9009 H   0  0  0  0  0  0  0  0  0  0  0  0
    9.2124  -28.7431   -8.7504 H   0  0  0  0  0  0  0  0  0  0  0  0
    7.8968  -29.0997   -9.8965 H   0  0  0  0  0  0  0  0  0  0  0  0
    9.5482  -28.9302  -10.4894 H   0  0  0  0  0  0  0  0  0  0  0  0
    6.9822  -24.3274   -9.8734 H   0  0  0  0  0  0  0  0  0  0  0  0
  1  2  1  0  0  0  0
  1  3  2  0  0  0  0
  1  5  1  0  0  0  0
  2  4  2  0  0  0  0
  2  9  1  0  0  0  0
  3  7  1  0  0  0  0
  3 10  1  0  0  0  0
  4  8  1  0  0  0  0
  4 10  1  0  0  0  0
  5  6  2  0  0  0  0
  6 15  1  0  0  0  0
  7 11  1  0  0  0  0
  7 13  2  0  0  0  0
  8 12  1  0  0  0  0
  8 14  2  0  0  0  0
  5 16  1  0  0  0  0
  6 17  1  0  0  0  0
  9 18  1  0  0  0  0
  9 19  1  0  0  0  0
  9 20  1  0  0  0  0
 10 21  1  0  0  0  0
M  CHG  2  11  -1  12  -1
M  END
> <Hybrid2>
-4.850957870483398

> <Hybrid2>
-4.850958

$$$$
C37624502
  -OEChem-02152218493D

 21 21  0     0  0  0  0  0  0999 V2000
    9.0308  -26.3690   -9.9606 C   0  0  0  0  0  0  0  0  0  0  0  0
    8.0875  -27.3068   -9.4731 C   0  0  0  0  0  0  0  0  0  0  0  0
    8.4177  -25.1356   -9.9697 C   0  0  0  0  0  0  0  0  0  0  0  0
    6.9265  -26.6180   -9.1993 C   0  0  0  0  0  0  0  0  0  0  0  0
   10.3602  -26.6213  -10.3691 C   0  0  0  0  0  0  0  0  0  0  0  0
   10.8953  -26.4140  -11.6170 C   0  0  0  0  0  0  0  0  0  0  0  0
    9.0245  -23.8028  -10.4122 C   0  0  0  0  0  0  0  0  0  0  0  0
    5.6238  -27.1996   -8.6522 C   0  0  0  0  0  0  0  0  0  0  0  0
    8.3024  -28.7586   -9.2894 C   0  0  0  0  0  0  0  0  0  0  0  0
    7.1388  -25.2991   -9.5052 N   0  0  0  0  0  0  0  0  0  0  0  0
    8.2751  -22.7915  -10.3359 O   0  5  0  0  0  0  0  0  0  0  0  0
    4.6754  -26.3869   -8.4724 O   0  5  0  0  0  0  0  0  0  0  0  0
   10.2194  -23.8352  -10.8138 O   0  0  0  0  0  0  0  0  0  0  0  0
    5.6111  -28.4413   -8.4281 O   0  0  0  0  0  0  0  0  0  0  0  0
   12.6467  -26.7686  -12.1230 Br  0  0  0  0  0  0  0  0  0  0  0  0
   11.0709  -27.0513   -9.6253 H   0  0  0  0  0  0  0  0  0  0  0  0
   10.3006  -26.0197  -12.4310 H   0  0  0  0  0  0  0  0  0  0  0  0
    8.6868  -28.9757   -8.2805 H   0  0  0  0  0  0  0  0  0  0  0  0
    7.3713  -29.3323   -9.4266 H   0  0  0  0  0  0  0  0  0  0  0  0
    9.0227  -29.1628  -10.0195 H   0  0  0  0  0  0  0  0  0  0  0  0
    6.4566  -24.5601   -9.4035 H   0  0  0  0  0  0  0  0  0  0  0  0
  1  2  1  0  0  0  0
  1  3  2  0  0  0  0
  1  5  1  0  0  0  0
  2  4  2  0  0  0  0
  2  9  1  0  0  0  0
  3  7  1  0  0  0  0
  3 10  1  0  0  0  0
  4  8  1  0  0  0  0
  4 10  1  0  0  0  0
  5  6  2  0  0  0  0
  6 15  1  0  0  0  0
  7 11  1  0  0  0  0
  7 13  2  0  0  0  0
  8 12  1  0  0  0  0
  8 14  2  0  0  0  0
  5 16  1  0  0  0  0
  6 17  1  0  0  0  0
  9 18  1  0  0  0  0
  9 19  1  0  0  0  0
  9 20  1  0  0  0  0
 10 21  1  0  0  0  0
M  CHG  2  11  -1  12  -1
M  END
> <Hybrid2>
-4.850957870483398

> <Hybrid2>
-4.528053

$$$$
C37656273
  -OEChem-02152218493D

 33 34  0     1  0  0  0  0  0999 V2000
    5.7966  -30.0320   -9.3635 C   0  0  0  0  0  0  0  0  0  0  0  0
    5.3998  -28.7256   -9.0779 C   0  0  0  0  0  0  0  0  0  0  0  0
    7.1513  -30.3357   -9.4984 C   0  0  0  0  0  0  0  0  0  0  0  0
    7.7125  -28.0267   -9.0622 C   0  0  0  0  0  0  0  0  0  0  0  0
    6.3577  -27.7230   -8.9272 C   0  0  0  0  0  0  0  0  0  0  0  0
    8.1092  -29.3331   -9.3478 C   0  0  0  0  0  0  0  0  0  0  0  0
   13.4564  -26.7904  -11.6214 C   0  0  0  0  0  0  0  0  0  0  0  0
   10.0359  -27.6405  -13.1332 C   0  0  0  0  0  0  0  0  0  0  0  0
   11.5279  -27.7672  -12.8386 C   0  0  0  0  0  0  0  0  0  0  0  0
    9.2288  -27.4801  -11.8499 C   0  0  0  0  0  0  0  0  0  0  0  0
   11.1724  -26.4438  -10.7189 C   0  0  0  0  0  0  0  0  0  0  0  0
   12.0153  -26.5942  -11.9855 C   0  0  1  0  0  0  0  0  0  0  0  0
    8.6432  -27.0521   -8.9161 N   0  5  0  0  0  0  0  0  0  0  0  0
    9.7328  -26.3008  -11.0874 N   0  0  2  0  0  0  0  0  0  0  0  0
   13.7040  -27.8220  -10.9375 O   0  5  0  0  0  0  0  0  0  0  0  0
   14.2373  -25.8942  -12.0484 O   0  0  0  0  0  0  0  0  0  0  0  0
    7.4488  -25.4005  -10.4966 O   0  0  0  0  0  0  0  0  0  0  0  0
    9.4187  -24.6142   -9.2351 O   0  0  0  0  0  0  0  0  0  0  0  0
    5.9565  -26.4728   -8.6512 F   0  0  0  0  0  0  0  0  0  0  0  0
    9.4073  -29.6450   -9.4811 F   0  0  0  0  0  0  0  0  0  0  0  0
    8.7069  -25.7502   -9.8294 S   0  0  0  0  0  0  0  0  0  0  0  0
    5.0512  -30.8128   -9.4808 H   0  0  0  0  0  0  0  0  0  0  0  0
    4.3450  -28.4891   -8.9727 H   0  0  0  0  0  0  0  0  0  0  0  0
    7.4604  -31.3526   -9.7208 H   0  0  0  0  0  0  0  0  0  0  0  0
    9.8620  -26.7791  -13.7874 H   0  0  0  0  0  0  0  0  0  0  0  0
    9.6902  -28.5282  -13.6765 H   0  0  0  0  0  0  0  0  0  0  0  0
   11.7216  -28.7165  -12.3383 H   0  0  0  0  0  0  0  0  0  0  0  0
   12.0770  -27.7707  -13.7818 H   0  0  0  0  0  0  0  0  0  0  0  0
    8.1634  -27.3488  -12.0735 H   0  0  0  0  0  0  0  0  0  0  0  0
    9.3440  -28.3847  -11.2422 H   0  0  0  0  0  0  0  0  0  0  0  0
   11.2940  -27.3278  -10.0893 H   0  0  0  0  0  0  0  0  0  0  0  0
   11.4908  -25.5632  -10.1563 H   0  0  0  0  0  0  0  0  0  0  0  0
   11.9495  -25.6721  -12.5708 H   0  0  0  0  0  0  0  0  0  0  0  0
  1  2  1  0  0  0  0
  1  3  2  0  0  0  0
  2  5  2  0  0  0  0
  3  6  1  0  0  0  0
  4  5  1  0  0  0  0
  4  6  2  0  0  0  0
  4 13  1  0  0  0  0
  5 19  1  0  0  0  0
  6 20  1  0  0  0  0
  7 12  1  0  0  0  0
  7 15  1  0  0  0  0
  7 16  2  0  0  0  0
  8  9  1  0  0  0  0
  8 10  1  0  0  0  0
  9 12  1  0  0  0  0
 10 14  1  0  0  0  0
 11 12  1  0  0  0  0
 11 14  1  0  0  0  0
 13 21  1  0  0  0  0
 14 21  1  0  0  0  0
 17 21  2  0  0  0  0
 18 21  2  0  0  0  0
  1 22  1  0  0  0  0
  2 23  1  0  0  0  0
  3 24  1  0  0  0  0
  8 25  1  0  0  0  0
  8 26  1  0  0  0  0
  9 27  1  0  0  0  0
  9 28  1  0  0  0  0
 10 29  1  0  0  0  0
 10 30  1  0  0  0  0
 11 31  1  0  0  0  0
 11 32  1  0  0  0  0
 12 33  1  0  0  0  0
M  CHG  2  13  -1  15  -1
M  END
> <Hybrid2>
-4.729737281799316

> <Hybrid2>
-4.729737

$$$$
C37656273
  -OEChem-02152218493D

 33 34  0     1  0  0  0  0  0999 V2000
    5.4402  -30.4014   -9.0779 C   0  0  0  0  0  0  0  0  0  0  0  0
    6.7860  -30.2235   -9.3984 C   0  0  0  0  0  0  0  0  0  0  0  0
    4.6637  -29.3075   -8.6956 C   0  0  0  0  0  0  0  0  0  0  0  0
    6.5790  -27.8577   -8.9540 C   0  0  0  0  0  0  0  0  0  0  0  0
    7.3554  -28.9517   -9.3365 C   0  0  0  0  0  0  0  0  0  0  0  0
    5.2331  -28.0357   -8.6336 C   0  0  0  0  0  0  0  0  0  0  0  0
   12.4424  -26.7168  -12.2696 C   0  0  0  0  0  0  0  0  0  0  0  0
   11.3723  -26.8931   -8.5910 C   0  0  0  0  0  0  0  0  0  0  0  0
   12.2940  -26.7080   -9.7931 C   0  0  0  0  0  0  0  0  0  0  0  0
   10.0991  -26.0672   -8.7357 C   0  0  0  0  0  0  0  0  0  0  0  0
   10.2684  -26.1795  -11.2034 C   0  0  0  0  0  0  0  0  0  0  0  0
   11.5517  -27.0037  -11.0980 C   0  0  1  0  0  0  0  0  0  0  0  0
    7.1326  -26.6220   -8.8935 N   0  5  0  0  0  0  0  0  0  0  0  0
    9.4101  -26.4311  -10.0082 N   0  0  2  0  0  0  0  0  0  0  0  0
   13.6783  -26.8539  -12.0535 O   0  5  0  0  0  0  0  0  0  0  0  0
   11.8369  -26.3741  -13.3237 O   0  0  0  0  0  0  0  0  0  0  0  0
    7.3395  -26.3731  -11.4524 O   0  0  0  0  0  0  0  0  0  0  0  0
    7.8724  -24.4288  -10.0291 O   0  0  0  0  0  0  0  0  0  0  0  0
    8.6511  -28.8005   -9.6499 F   0  0  0  0  0  0  0  0  0  0  0  0
    4.4700  -26.9960   -8.2638 F   0  0  0  0  0  0  0  0  0  0  0  0
    7.7898  -25.8884  -10.1437 S   0  0  0  0  0  0  0  0  0  0  0  0
    4.9965  -31.3913   -9.1261 H   0  0  0  0  0  0  0  0  0  0  0  0
    7.3906  -31.0752   -9.6963 H   0  0  0  0  0  0  0  0  0  0  0  0
    3.6161  -29.4458   -8.4460 H   0  0  0  0  0  0  0  0  0  0  0  0
   11.1138  -27.9525   -8.4855 H   0  0  0  0  0  0  0  0  0  0  0  0
   11.8981  -26.6006   -7.6741 H   0  0  0  0  0  0  0  0  0  0  0  0
   12.6911  -25.6924   -9.7953 H   0  0  0  0  0  0  0  0  0  0  0  0
   13.1377  -27.3944   -9.7028 H   0  0  0  0  0  0  0  0  0  0  0  0
    9.4254  -26.2381   -7.8877 H   0  0  0  0  0  0  0  0  0  0  0  0
   10.3653  -25.0044   -8.7552 H   0  0  0  0  0  0  0  0  0  0  0  0
   10.5166  -25.1169  -11.2478 H   0  0  0  0  0  0  0  0  0  0  0  0
    9.7185  -26.4516  -12.1073 H   0  0  0  0  0  0  0  0  0  0  0  0
   11.2979  -28.0674  -11.1343 H   0  0  0  0  0  0  0  0  0  0  0  0
  1  2  1  0  0  0  0
  1  3  2  0  0  0  0
  2  5  2  0  0  0  0
  3  6  1  0  0  0  0
  4  5  1  0  0  0  0
  4  6  2  0  0  0  0
  4 13  1  0  0  0  0
  5 19  1  0  0  0  0
  6 20  1  0  0  0  0
  7 12  1  0  0  0  0
  7 15  1  0  0  0  0
  7 16  2  0  0  0  0
  8  9  1  0  0  0  0
  8 10  1  0  0  0  0
  9 12  1  0  0  0  0
 10 14  1  0  0  0  0
 11 12  1  0  0  0  0
 11 14  1  0  0  0  0
 13 21  1  0  0  0  0
 14 21  1  0  0  0  0
 17 21  2  0  0  0  0
 18 21  2  0  0  0  0
  1 22  1  0  0  0  0
  2 23  1  0  0  0  0
  3 24  1  0  0  0  0
  8 25  1  0  0  0  0
  8 26  1  0  0  0  0
  9 27  1  0  0  0  0
  9 28  1  0  0  0  0
 10 29  1  0  0  0  0
 10 30  1  0  0  0  0
 11 31  1  0  0  0  0
 11 32  1  0  0  0  0
 12 33  1  0  0  0  0
M  CHG  2  13  -1  15  -1
M  END
> <Hybrid2>
-4.729737281799316

> <Hybrid2>
-4.724023

$$$$
C37675820
  -OEChem-02152218493D

 28 29  0     0  0  0  0  0  0999 V2000
    6.0945  -29.4812   -7.8852 C   0  0  0  0  0  0  0  0  0  0  0  0
    6.9365  -27.3820   -8.8147 C   0  0  0  0  0  0  0  0  0  0  0  0
    7.9741  -29.4694   -9.4498 C   0  0  0  0  0  0  0  0  0  0  0  0
    7.8293  -26.6894   -9.6325 C   0  0  0  0  0  0  0  0  0  0  0  0
    8.8669  -28.7768  -10.2676 C   0  0  0  0  0  0  0  0  0  0  0  0
    7.0089  -28.7721   -8.7233 C   0  0  0  0  0  0  0  0  0  0  0  0
   13.4216  -26.9372  -11.1011 C   0  0  0  0  0  0  0  0  0  0  0  0
    8.7945  -27.3868  -10.3589 C   0  0  0  0  0  0  0  0  0  0  0  0
   14.3421  -27.9175  -10.6321 C   0  0  0  0  0  0  0  0  0  0  0  0
   12.2803  -26.9518  -10.3290 C   0  0  0  0  0  0  0  0  0  0  0  0
   13.6780  -26.0107  -12.2912 C   0  0  0  0  0  0  0  0  0  0  0  0
   15.6737  -28.1885  -11.2167 C   0  0  0  0  0  0  0  0  0  0  0  0
    5.3517  -30.0572   -7.2045 N   0  0  0  0  0  0  0  0  0  0  0  0
   13.9723  -28.6476   -9.5826 N   0  0  0  0  0  0  0  0  0  0  0  0
   11.1881  -26.1626  -10.4743 N   0  5  0  0  0  0  0  0  0  0  0  0
   14.2316  -24.9071  -12.0348 O   0  5  0  0  0  0  0  0  0  0  0  0
   13.3125  -26.4337  -13.4215 O   0  0  0  0  0  0  0  0  0  0  0  0
   10.2136  -27.4569  -12.4814 O   0  0  0  0  0  0  0  0  0  0  0  0
    9.1586  -25.3364  -11.8356 O   0  0  0  0  0  0  0  0  0  0  0  0
   12.4542  -28.1534   -9.1208 S   0  0  0  0  0  0  0  0  0  0  0  0
    9.9122  -26.5203  -11.3827 S   0  0  0  0  0  0  0  0  0  0  0  0
    6.1898  -26.8247   -8.2542 H   0  0  0  0  0  0  0  0  0  0  0  0
    8.0434  -30.5529   -9.3887 H   0  0  0  0  0  0  0  0  0  0  0  0
    7.7647  -25.6064   -9.6958 H   0  0  0  0  0  0  0  0  0  0  0  0
    9.6155  -29.3300  -10.8287 H   0  0  0  0  0  0  0  0  0  0  0  0
   16.4470  -27.5655  -10.7409 H   0  0  0  0  0  0  0  0  0  0  0  0
   15.9682  -29.2436  -11.0957 H   0  0  0  0  0  0  0  0  0  0  0  0
   15.6954  -27.9856  -12.2999 H   0  0  0  0  0  0  0  0  0  0  0  0
  1  6  1  0  0  0  0
  1 13  3  0  0  0  0
  2  4  2  0  0  0  0
  2  6  1  0  0  0  0
  3  5  1  0  0  0  0
  3  6  2  0  0  0  0
  4  8  1  0  0  0  0
  5  8  2  0  0  0  0
  7  9  1  0  0  0  0
  7 10  2  0  0  0  0
  7 11  1  0  0  0  0
  8 21  1  0  0  0  0
  9 12  1  0  0  0  0
  9 14  2  0  0  0  0
 10 15  1  0  0  0  0
 10 20  1  0  0  0  0
 11 16  1  0  0  0  0
 11 17  2  0  0  0  0
 14 20  1  0  0  0  0
 15 21  1  0  0  0  0
 18 21  2  0  0  0  0
 19 21  2  0  0  0  0
  2 22  1  0  0  0  0
  3 23  1  0  0  0  0
  4 24  1  0  0  0  0
  5 25  1  0  0  0  0
 12 26  1  0  0  0  0
 12 27  1  0  0  0  0
 12 28  1  0  0  0  0
M  CHG  2  15  -1  16  -1
M  END
> <Hybrid2>
-3.0497961044311523

> <Hybrid2>
-3.049796

$$$$
C37675820
  -OEChem-02152218493D

 28 29  0     0  0  0  0  0  0999 V2000
   14.5047  -27.9252  -10.5932 C   0  0  0  0  0  0  0  0  0  0  0  0
   12.7183  -26.7718  -11.8005 C   0  0  0  0  0  0  0  0  0  0  0  0
   12.4427  -27.2707   -9.4527 C   0  0  0  0  0  0  0  0  0  0  0  0
   11.4558  -26.1791  -11.8227 C   0  0  0  0  0  0  0  0  0  0  0  0
   11.1803  -26.6780   -9.4749 C   0  0  0  0  0  0  0  0  0  0  0  0
   13.2117  -27.3177  -10.6155 C   0  0  0  0  0  0  0  0  0  0  0  0
    6.9626  -27.8474   -9.2965 C   0  0  0  0  0  0  0  0  0  0  0  0
   10.6868  -26.1321  -10.6600 C   0  0  0  0  0  0  0  0  0  0  0  0
    7.0555  -29.1724   -8.7826 C   0  0  0  0  0  0  0  0  0  0  0  0
    7.8605  -27.6754  -10.3275 C   0  0  0  0  0  0  0  0  0  0  0  0
    6.0002  -26.7816   -8.7686 C   0  0  0  0  0  0  0  0  0  0  0  0
    6.2449  -29.7170   -7.6715 C   0  0  0  0  0  0  0  0  0  0  0  0
   15.5550  -28.4185  -10.5751 N   0  0  0  0  0  0  0  0  0  0  0  0
    7.9441  -29.9848   -9.3498 N   0  0  0  0  0  0  0  0  0  0  0  0
    8.0583  -26.5503  -11.0566 N   0  5  0  0  0  0  0  0  0  0  0  0
    4.8641  -26.7313   -9.3134 O   0  5  0  0  0  0  0  0  0  0  0  0
    6.4298  -26.0490   -7.8365 O   0  0  0  0  0  0  0  0  0  0  0  0
    8.9282  -24.8439   -9.3289 O   0  0  0  0  0  0  0  0  0  0  0  0
    9.2092  -24.3372  -11.7145 O   0  0  0  0  0  0  0  0  0  0  0  0
    8.7154  -29.1419  -10.5567 S   0  0  0  0  0  0  0  0  0  0  0  0
    9.1066  -25.3902  -10.6872 S   0  0  0  0  0  0  0  0  0  0  0  0
   13.3059  -26.8011  -12.7149 H   0  0  0  0  0  0  0  0  0  0  0  0
   12.8134  -27.6922   -8.5213 H   0  0  0  0  0  0  0  0  0  0  0  0
   11.0805  -25.7575  -12.7514 H   0  0  0  0  0  0  0  0  0  0  0  0
   10.5892  -26.6475   -8.5633 H   0  0  0  0  0  0  0  0  0  0  0  0
    5.3159  -30.1729   -8.0480 H   0  0  0  0  0  0  0  0  0  0  0  0
    6.7922  -30.4861   -7.1025 H   0  0  0  0  0  0  0  0  0  0  0  0
    5.9676  -28.9361   -6.9445 H   0  0  0  0  0  0  0  0  0  0  0  0
  1  6  1  0  0  0  0
  1 13  3  0  0  0  0
  2  4  2  0  0  0  0
  2  6  1  0  0  0  0
  3  5  1  0  0  0  0
  3  6  2  0  0  0  0
  4  8  1  0  0  0  0
  5  8  2  0  0  0  0
  7  9  1  0  0  0  0
  7 10  2  0  0  0  0
  7 11  1  0  0  0  0
  8 21  1  0  0  0  0
  9 12  1  0  0  0  0
  9 14  2  0  0  0  0
 10 15  1  0  0  0  0
 10 20  1  0  0  0  0
 11 16  1  0  0  0  0
 11 17  2  0  0  0  0
 14 20  1  0  0  0  0
 15 21  1  0  0  0  0
 18 21  2  0  0  0  0
 19 21  2  0  0  0  0
  2 22  1  0  0  0  0
  3 23  1  0  0  0  0
  4 24  1  0  0  0  0
  5 25  1  0  0  0  0
 12 26  1  0  0  0  0
 12 27  1  0  0  0  0
 12 28  1  0  0  0  0
M  CHG  2  15  -1  16  -1
M  END
> <Hybrid2>
-3.0497961044311523

> <Hybrid2>
-2.705092

$$$$
C37675891
  -OEChem-02152218493D

 38 39  0     1  0  0  0  0  0999 V2000
    7.3925  -28.1792   -9.2057 C   0  0  0  0  0  0  0  0  0  0  0  0
    7.1624  -29.5821   -9.1190 C   0  0  0  0  0  0  0  0  0  0  0  0
    8.6202  -27.9356   -9.7821 C   0  0  0  0  0  0  0  0  0  0  0  0
    6.4090  -27.1110   -8.7236 C   0  0  0  0  0  0  0  0  0  0  0  0
   13.6867  -27.1661  -12.6465 C   0  0  0  0  0  0  0  0  0  0  0  0
   11.4399  -26.2329  -11.9728 C   0  0  0  0  0  0  0  0  0  0  0  0
   13.0936  -26.8059  -10.2205 C   0  0  0  0  0  0  0  0  0  0  0  0
   12.2006  -27.0544  -13.0202 C   0  0  2  0  0  0  0  0  0  0  0  0
   13.8947  -27.6617  -11.2075 C   0  0  2  0  0  0  0  0  0  0  0  0
    5.9504  -30.2161   -8.5557 C   0  0  0  0  0  0  0  0  0  0  0  0
   11.5588  -28.4297  -13.2270 C   0  0  0  0  0  0  0  0  0  0  0  0
   15.3789  -27.6520  -10.8452 C   0  0  0  0  0  0  0  0  0  0  0  0
    8.1163  -30.3856   -9.5833 N   0  0  0  0  0  0  0  0  0  0  0  0
    9.1797  -26.7256  -10.0272 N   0  5  0  0  0  0  0  0  0  0  0  0
   11.6530  -26.8065  -10.6109 N   0  0  0  0  0  0  0  0  0  0  0  0
    6.7656  -25.9108   -8.8730 O   0  5  0  0  0  0  0  0  0  0  0  0
    5.3304  -27.5268   -8.2199 O   0  0  0  0  0  0  0  0  0  0  0  0
   10.7627  -24.8014   -9.3611 O   0  0  0  0  0  0  0  0  0  0  0  0
   10.9688  -26.9616   -8.1860 O   0  0  0  0  0  0  0  0  0  0  0  0
    9.3558  -29.4370  -10.1541 S   0  0  0  0  0  0  0  0  0  0  0  0
   10.5669  -26.2539   -9.4058 S   0  0  0  0  0  0  0  0  0  0  0  0
   14.2028  -27.8300  -13.3509 H   0  0  0  0  0  0  0  0  0  0  0  0
   14.1488  -26.1759  -12.7577 H   0  0  0  0  0  0  0  0  0  0  0  0
   11.7862  -25.1923  -11.9829 H   0  0  0  0  0  0  0  0  0  0  0  0
   10.3695  -26.2345  -12.2083 H   0  0  0  0  0  0  0  0  0  0  0  0
   13.1928  -27.2280   -9.2137 H   0  0  0  0  0  0  0  0  0  0  0  0
   13.4661  -25.7746  -10.1976 H   0  0  0  0  0  0  0  0  0  0  0  0
   12.1339  -26.5244  -13.9792 H   0  0  0  0  0  0  0  0  0  0  0  0
   13.5414  -28.6985  -11.1393 H   0  0  0  0  0  0  0  0  0  0  0  0
    5.1880  -30.3704   -9.3351 H   0  0  0  0  0  0  0  0  0  0  0  0
    6.1726  -31.1957   -8.1019 H   0  0  0  0  0  0  0  0  0  0  0  0
    5.4993  -29.6032   -7.7582 H   0  0  0  0  0  0  0  0  0  0  0  0
   11.6011  -28.9951  -12.2993 H   0  0  0  0  0  0  0  0  0  0  0  0
   12.0961  -28.9698  -14.0027 H   0  0  0  0  0  0  0  0  0  0  0  0
   10.5209  -28.3064  -13.5268 H   0  0  0  0  0  0  0  0  0  0  0  0
   15.7656  -26.6360  -10.9021 H   0  0  0  0  0  0  0  0  0  0  0  0
   15.9315  -28.2837  -11.5385 H   0  0  0  0  0  0  0  0  0  0  0  0
   15.5137  -28.0294   -9.8330 H   0  0  0  0  0  0  0  0  0  0  0  0
  1  2  1  0  0  0  0
  1  3  2  0  0  0  0
  1  4  1  0  0  0  0
  2 10  1  0  0  0  0
  2 13  2  0  0  0  0
  3 14  1  0  0  0  0
  3 20  1  0  0  0  0
  4 16  1  0  0  0  0
  4 17  2  0  0  0  0
  5  8  1  0  0  0  0
  5  9  1  0  0  0  0
  6  8  1  0  0  0  0
  6 15  1  0  0  0  0
  7  9  1  0  0  0  0
  7 15  1  0  0  0  0
  8 11  1  0  0  0  0
  9 12  1  0  0  0  0
 13 20  1  0  0  0  0
 14 21  1  0  0  0  0
 15 21  1  0  0  0  0
 18 21  2  0  0  0  0
 19 21  2  0  0  0  0
  5 22  1  0  0  0  0
  5 23  1  0  0  0  0
  6 24  1  0  0  0  0
  6 25  1  0  0  0  0
  7 26  1  0  0  0  0
  7 27  1  0  0  0  0
  8 28  1  0  0  0  0
  9 29  1  0  0  0  0
 10 30  1  0  0  0  0
 10 31  1  0  0  0  0
 10 32  1  0  0  0  0
 11 33  1  0  0  0  0
 11 34  1  0  0  0  0
 11 35  1  0  0  0  0
 12 36  1  0  0  0  0
 12 37  1  0  0  0  0
 12 38  1  0  0  0  0
M  CHG  2  14  -1  16  -1
M  END
> <Hybrid2>
-4.269740104675293

> <Hybrid2>
-4.269740

$$$$
C37675891
  -OEChem-02152218493D

 38 39  0     1  0  0  0  0  0999 V2000
    6.8788  -28.1022   -9.2925 C   0  0  0  0  0  0  0  0  0  0  0  0
    6.6488  -29.5050   -9.2058 C   0  0  0  0  0  0  0  0  0  0  0  0
    8.1065  -27.8586   -9.8689 C   0  0  0  0  0  0  0  0  0  0  0  0
    5.8954  -27.0340   -8.8104 C   0  0  0  0  0  0  0  0  0  0  0  0
   13.1730  -27.0890  -12.7333 C   0  0  0  0  0  0  0  0  0  0  0  0
   10.9262  -26.1559  -12.0596 C   0  0  0  0  0  0  0  0  0  0  0  0
   12.5799  -26.7289  -10.3073 C   0  0  0  0  0  0  0  0  0  0  0  0
   11.6869  -26.9774  -13.1070 C   0  0  2  0  0  0  0  0  0  0  0  0
   13.3810  -27.5846  -11.2943 C   0  0  2  0  0  0  0  0  0  0  0  0
    5.4368  -30.1391   -8.6425 C   0  0  0  0  0  0  0  0  0  0  0  0
   11.0452  -28.3527  -13.3139 C   0  0  0  0  0  0  0  0  0  0  0  0
   14.8652  -27.5750  -10.9320 C   0  0  0  0  0  0  0  0  0  0  0  0
    7.6027  -30.3086   -9.6701 N   0  0  0  0  0  0  0  0  0  0  0  0
    8.6660  -26.6486  -10.1140 N   0  5  0  0  0  0  0  0  0  0  0  0
   11.1393  -26.7295  -10.6978 N   0  0  0  0  0  0  0  0  0  0  0  0
    6.2520  -25.8337   -8.9598 O   0  5  0  0  0  0  0  0  0  0  0  0
    4.8167  -27.4498   -8.3067 O   0  0  0  0  0  0  0  0  0  0  0  0
   10.2491  -24.7244   -9.4480 O   0  0  0  0  0  0  0  0  0  0  0  0
   10.4551  -26.8846   -8.2728 O   0  0  0  0  0  0  0  0  0  0  0  0
    8.8421  -29.3600  -10.2410 S   0  0  0  0  0  0  0  0  0  0  0  0
   10.0532  -26.1769   -9.4926 S   0  0  0  0  0  0  0  0  0  0  0  0
   13.6891  -27.7529  -13.4377 H   0  0  0  0  0  0  0  0  0  0  0  0
   13.6352  -26.0989  -12.8445 H   0  0  0  0  0  0  0  0  0  0  0  0
   11.2726  -25.1153  -12.0698 H   0  0  0  0  0  0  0  0  0  0  0  0
    9.8558  -26.1575  -12.2951 H   0  0  0  0  0  0  0  0  0  0  0  0
   12.6791  -27.1510   -9.3005 H   0  0  0  0  0  0  0  0  0  0  0  0
   12.9524  -25.6976  -10.2844 H   0  0  0  0  0  0  0  0  0  0  0  0
   11.6203  -26.4474  -14.0660 H   0  0  0  0  0  0  0  0  0  0  0  0
   13.0278  -28.6215  -11.2261 H   0  0  0  0  0  0  0  0  0  0  0  0
    4.6743  -30.2933   -9.4219 H   0  0  0  0  0  0  0  0  0  0  0  0
    5.6590  -31.1186   -8.1887 H   0  0  0  0  0  0  0  0  0  0  0  0
    4.9857  -29.5262   -7.8451 H   0  0  0  0  0  0  0  0  0  0  0  0
   11.0874  -28.9181  -12.3861 H   0  0  0  0  0  0  0  0  0  0  0  0
   11.5825  -28.8928  -14.0895 H   0  0  0  0  0  0  0  0  0  0  0  0
   10.0073  -28.2294  -13.6136 H   0  0  0  0  0  0  0  0  0  0  0  0
   15.2520  -26.5590  -10.9889 H   0  0  0  0  0  0  0  0  0  0  0  0
   15.4179  -28.2067  -11.6253 H   0  0  0  0  0  0  0  0  0  0  0  0
   15.0000  -27.9523   -9.9198 H   0  0  0  0  0  0  0  0  0  0  0  0
  1  2  1  0  0  0  0
  1  3  2  0  0  0  0
  1  4  1  0  0  0  0
  2 10  1  0  0  0  0
  2 13  2  0  0  0  0
  3 14  1  0  0  0  0
  3 20  1  0  0  0  0
  4 16  1  0  0  0  0
  4 17  2  0  0  0  0
  5  8  1  0  0  0  0
  5  9  1  0  0  0  0
  6  8  1  0  0  0  0
  6 15  1  0  0  0  0
  7  9  1  0  0  0  0
  7 15  1  0  0  0  0
  8 11  1  0  0  0  0
  9 12  1  0  0  0  0
 13 20  1  0  0  0  0
 14 21  1  0  0  0  0
 15 21  1  0  0  0  0
 18 21  2  0  0  0  0
 19 21  2  0  0  0  0
  5 22  1  0  0  0  0
  5 23  1  0  0  0  0
  6 24  1  0  0  0  0
  6 25  1  0  0  0  0
  7 26  1  0  0  0  0
  7 27  1  0  0  0  0
  8 28  1  0  0  0  0
  9 29  1  0  0  0  0
 10 30  1  0  0  0  0
 10 31  1  0  0  0  0
 10 32  1  0  0  0  0
 11 33  1  0  0  0  0
 11 34  1  0  0  0  0
 11 35  1  0  0  0  0
 12 36  1  0  0  0  0
 12 37  1  0  0  0  0
 12 38  1  0  0  0  0
M  CHG  2  14  -1  16  -1
M  END
> <Hybrid2>
-4.269740104675293

> <Hybrid2>
-4.222601

$$$$
C13813943
  -OEChem-02152218493D

 36 38  0     0  0  0  0  0  0999 V2000
    7.8133  -25.8179  -10.6931 C   0  0  0  0  0  0  0  0  0  0  0  0
    9.1216  -26.0521  -11.1332 C   0  0  0  0  0  0  0  0  0  0  0  0
    7.1376  -26.7547   -9.8953 C   0  0  0  0  0  0  0  0  0  0  0  0
    9.1278  -28.1732  -10.0019 C   0  0  0  0  0  0  0  0  0  0  0  0
    7.8221  -27.9226   -9.5722 C   0  0  0  0  0  0  0  0  0  0  0  0
    9.7791  -27.2292  -10.7868 C   0  0  0  0  0  0  0  0  0  0  0  0
   13.3741  -27.1714  -10.7622 C   0  0  0  0  0  0  0  0  0  0  0  0
    5.7574  -26.5741   -9.3988 C   0  0  0  0  0  0  0  0  0  0  0  0
    5.1791  -27.5570   -8.6760 C   0  0  0  0  0  0  0  0  0  0  0  0
    5.9238  -28.8003   -8.3222 C   0  0  0  0  0  0  0  0  0  0  0  0
    2.8524  -28.1486   -9.2084 C   0  0  0  0  0  0  0  0  0  0  0  0
    9.8226  -29.4422   -9.6275 C   0  0  0  0  0  0  0  0  0  0  0  0
    5.0790  -25.2675   -9.7293 C   0  0  0  0  0  0  0  0  0  0  0  0
   12.0390  -26.4897  -10.8266 C   0  0  0  0  0  0  0  0  0  0  0  0
    3.7616  -27.5308   -8.1640 C   0  0  0  0  0  0  0  0  0  0  0  0
   14.1090  -27.2459   -9.6362 N   0  5  0  0  0  0  0  0  0  0  0  0
   13.9491  -27.7659  -11.8249 N   0  0  0  0  0  0  0  0  0  0  0  0
   15.2158  -27.9311  -10.0181 N   0  0  0  0  0  0  0  0  0  0  0  0
   15.1199  -28.2435  -11.3329 N   0  0  0  0  0  0  0  0  0  0  0  0
    3.1289  -29.3404   -9.5225 O   0  5  0  0  0  0  0  0  0  0  0  0
    5.4225  -29.6877   -7.6384 O   0  0  0  0  0  0  0  0  0  0  0  0
    1.9218  -27.3995   -9.6192 O   0  0  0  0  0  0  0  0  0  0  0  0
    7.2214  -28.9200   -8.7894 O   0  0  0  0  0  0  0  0  0  0  0  0
   11.0508  -27.4377  -11.2262 O   0  0  0  0  0  0  0  0  0  0  0  0
    7.3431  -24.8862  -10.9965 H   0  0  0  0  0  0  0  0  0  0  0  0
    9.6185  -25.3080  -11.7503 H   0  0  0  0  0  0  0  0  0  0  0  0
    9.6329  -30.2147  -10.3812 H   0  0  0  0  0  0  0  0  0  0  0  0
   10.9056  -29.2908   -9.5457 H   0  0  0  0  0  0  0  0  0  0  0  0
    9.4765  -29.8100   -8.6539 H   0  0  0  0  0  0  0  0  0  0  0  0
    4.5546  -25.3699  -10.6733 H   0  0  0  0  0  0  0  0  0  0  0  0
    5.8293  -24.4874   -9.8037 H   0  0  0  0  0  0  0  0  0  0  0  0
    4.3772  -25.0230   -8.9389 H   0  0  0  0  0  0  0  0  0  0  0  0
   11.7629  -26.0758   -9.8508 H   0  0  0  0  0  0  0  0  0  0  0  0
   12.0588  -25.6657  -11.5481 H   0  0  0  0  0  0  0  0  0  0  0  0
    3.7310  -28.0930   -7.2322 H   0  0  0  0  0  0  0  0  0  0  0  0
    3.4933  -26.4935   -7.9707 H   0  0  0  0  0  0  0  0  0  0  0  0
  1  2  2  0  0  0  0
  1  3  1  0  0  0  0
  2  6  1  0  0  0  0
  3  5  2  0  0  0  0
  3  8  1  0  0  0  0
  4  5  1  0  0  0  0
  4  6  2  0  0  0  0
  4 12  1  0  0  0  0
  5 23  1  0  0  0  0
  6 24  1  0  0  0  0
  7 14  1  0  0  0  0
  7 16  1  0  0  0  0
  7 17  2  0  0  0  0
  8  9  2  0  0  0  0
  8 13  1  0  0  0  0
  9 10  1  0  0  0  0
  9 15  1  0  0  0  0
 10 21  2  0  0  0  0
 10 23  1  0  0  0  0
 11 15  1  0  0  0  0
 11 20  1  0  0  0  0
 11 22  2  0  0  0  0
 14 24  1  0  0  0  0
 16 18  1  0  0  0  0
 17 19  1  0  0  0  0
 18 19  2  0  0  0  0
  1 25  1  0  0  0  0
  2 26  1  0  0  0  0
 12 27  1  0  0  0  0
 12 28  1  0  0  0  0
 12 29  1  0  0  0  0
 13 30  1  0  0  0  0
 13 31  1  0  0  0  0
 13 32  1  0  0  0  0
 14 33  1  0  0  0  0
 14 34  1  0  0  0  0
 15 35  1  0  0  0  0
 15 36  1  0  0  0  0
M  CHG  2  16  -1  20  -1
M  END
> <Hybrid2>
-2.5336925983428955

> <Hybrid2>
-2.533693

$$$$
C13813943
  -OEChem-02152218493D

 36 38  0     0  0  0  0  0  0999 V2000
    8.2822  -25.3348  -10.8415 C   0  0  0  0  0  0  0  0  0  0  0  0
    9.5806  -25.6794  -11.2361 C   0  0  0  0  0  0  0  0  0  0  0  0
    7.5154  -26.1948  -10.0395 C   0  0  0  0  0  0  0  0  0  0  0  0
    9.3941  -27.7616  -10.0491 C   0  0  0  0  0  0  0  0  0  0  0  0
    8.0998  -27.4011   -9.6652 C   0  0  0  0  0  0  0  0  0  0  0  0
   10.1368  -26.8923  -10.8390 C   0  0  0  0  0  0  0  0  0  0  0  0
   13.7237  -27.1046  -10.7090 C   0  0  0  0  0  0  0  0  0  0  0  0
    6.1398  -25.8966   -9.5893 C   0  0  0  0  0  0  0  0  0  0  0  0
    5.4686  -26.8120   -8.8581 C   0  0  0  0  0  0  0  0  0  0  0  0
    6.1064  -28.0971   -8.4494 C   0  0  0  0  0  0  0  0  0  0  0  0
    3.1192  -27.2417   -9.4437 C   0  0  0  0  0  0  0  0  0  0  0  0
    9.9797  -29.0680   -9.6205 C   0  0  0  0  0  0  0  0  0  0  0  0
    5.5721  -24.5527   -9.9745 C   0  0  0  0  0  0  0  0  0  0  0  0
   12.4466  -26.3264  -10.8313 C   0  0  0  0  0  0  0  0  0  0  0  0
    4.0436  -26.6644   -8.3895 C   0  0  0  0  0  0  0  0  0  0  0  0
   14.4193  -27.2018   -9.5601 N   0  5  0  0  0  0  0  0  0  0  0  0
   14.2810  -27.7710  -11.7379 N   0  0  0  0  0  0  0  0  0  0  0  0
   15.4810  -27.9791   -9.8905 N   0  0  0  0  0  0  0  0  0  0  0  0
   15.3980  -28.3211  -11.1988 N   0  0  0  0  0  0  0  0  0  0  0  0
    3.3128  -28.4596   -9.7176 O   0  5  0  0  0  0  0  0  0  0  0  0
    5.5204  -28.9242   -7.7575 O   0  0  0  0  0  0  0  0  0  0  0  0
    2.2600  -26.4368   -9.9018 O   0  0  0  0  0  0  0  0  0  0  0  0
    7.4035  -28.3275   -8.8745 O   0  0  0  0  0  0  0  0  0  0  0  0
   11.4006  -27.2085  -11.2348 O   0  0  0  0  0  0  0  0  0  0  0  0
    7.8929  -24.3795  -11.1834 H   0  0  0  0  0  0  0  0  0  0  0  0
   10.1496  -24.9929  -11.8576 H   0  0  0  0  0  0  0  0  0  0  0  0
    9.7527  -29.8454  -10.3588 H   0  0  0  0  0  0  0  0  0  0  0  0
   11.0684  -28.9963   -9.5107 H   0  0  0  0  0  0  0  0  0  0  0  0
    9.5798  -29.3805   -8.6483 H   0  0  0  0  0  0  0  0  0  0  0  0
    5.0678  -24.6424  -10.9306 H   0  0  0  0  0  0  0  0  0  0  0  0
    6.3814  -23.8337  -10.0473 H   0  0  0  0  0  0  0  0  0  0  0  0
    4.8693  -24.2334   -9.2121 H   0  0  0  0  0  0  0  0  0  0  0  0
   12.1759  -25.8651   -9.8754 H   0  0  0  0  0  0  0  0  0  0  0  0
   12.5490  -25.5274  -11.5735 H   0  0  0  0  0  0  0  0  0  0  0  0
    3.9444  -27.1957   -7.4444 H   0  0  0  0  0  0  0  0  0  0  0  0
    3.8497  -25.6047   -8.2319 H   0  0  0  0  0  0  0  0  0  0  0  0
  1  2  2  0  0  0  0
  1  3  1  0  0  0  0
  2  6  1  0  0  0  0
  3  5  2  0  0  0  0
  3  8  1  0  0  0  0
  4  5  1  0  0  0  0
  4  6  2  0  0  0  0
  4 12  1  0  0  0  0
  5 23  1  0  0  0  0
  6 24  1  0  0  0  0
  7 14  1  0  0  0  0
  7 16  1  0  0  0  0
  7 17  2  0  0  0  0
  8  9  2  0  0  0  0
  8 13  1  0  0  0  0
  9 10  1  0  0  0  0
  9 15  1  0  0  0  0
 10 21  2  0  0  0  0
 10 23  1  0  0  0  0
 11 15  1  0  0  0  0
 11 20  1  0  0  0  0
 11 22  2  0  0  0  0
 14 24  1  0  0  0  0
 16 18  1  0  0  0  0
 17 19  1  0  0  0  0
 18 19  2  0  0  0  0
  1 25  1  0  0  0  0
  2 26  1  0  0  0  0
 12 27  1  0  0  0  0
 12 28  1  0  0  0  0
 12 29  1  0  0  0  0
 13 30  1  0  0  0  0
 13 31  1  0  0  0  0
 13 32  1  0  0  0  0
 14 33  1  0  0  0  0
 14 34  1  0  0  0  0
 15 35  1  0  0  0  0
 15 36  1  0  0  0  0
M  CHG  2  16  -1  20  -1
M  END
> <Hybrid2>
-2.5336925983428955

> <Hybrid2>
-2.299784

$$$$
C17784574
  -OEChem-02152218493D

 29 31  0     0  0  0  0  0  0999 V2000
   11.7376  -27.1880  -11.4279 C   0  0  0  0  0  0  0  0  0  0  0  0
   11.7578  -26.8840  -10.0668 C   0  0  0  0  0  0  0  0  0  0  0  0
   10.6011  -26.9107  -12.1877 C   0  0  0  0  0  0  0  0  0  0  0  0
   10.6415  -26.3029   -9.4653 C   0  0  0  0  0  0  0  0  0  0  0  0
    6.1929  -28.1799   -8.3452 C   0  0  0  0  0  0  0  0  0  0  0  0
    6.1722  -29.5634   -8.3258 C   0  0  0  0  0  0  0  0  0  0  0  0
    9.4848  -26.3296  -11.5862 C   0  0  0  0  0  0  0  0  0  0  0  0
    9.5050  -26.0257  -10.2250 C   0  0  0  0  0  0  0  0  0  0  0  0
    7.2649  -27.5582   -8.9532 C   0  0  0  0  0  0  0  0  0  0  0  0
    7.2248  -30.2336   -8.9160 C   0  0  0  0  0  0  0  0  0  0  0  0
    7.3764  -26.1197   -9.0227 C   0  0  0  0  0  0  0  0  0  0  0  0
    8.1208  -24.1271   -9.4521 C   0  0  0  0  0  0  0  0  0  0  0  0
    8.2826  -26.0453  -12.4282 C   0  0  0  0  0  0  0  0  0  0  0  0
    8.2815  -28.2395   -9.5230 N   0  0  0  0  0  0  0  0  0  0  0  0
    8.2609  -29.5993   -9.5043 N   0  0  0  0  0  0  0  0  0  0  0  0
    6.5088  -25.2610   -8.5368 N   0  0  0  0  0  0  0  0  0  0  0  0
    6.9824  -23.9932   -8.8099 N   0  0  0  0  0  0  0  0  0  0  0  0
    8.4074  -25.4493   -9.6079 N   0  0  0  0  0  0  0  0  0  0  0  0
    7.2808  -31.5087   -8.9427 O   0  5  0  0  0  0  0  0  0  0  0  0
    9.0882  -22.8425  -10.0043 S   0  5  0  0  0  0  0  0  0  0  0  0
   12.6070  -27.6400  -11.8964 H   0  0  0  0  0  0  0  0  0  0  0  0
   12.6426  -27.1001   -9.4751 H   0  0  0  0  0  0  0  0  0  0  0  0
   10.5958  -27.1518  -13.2474 H   0  0  0  0  0  0  0  0  0  0  0  0
   10.6733  -26.0726   -8.4031 H   0  0  0  0  0  0  0  0  0  0  0  0
    5.3850  -27.6146   -7.8922 H   0  0  0  0  0  0  0  0  0  0  0  0
    5.3413  -30.0826   -7.8564 H   0  0  0  0  0  0  0  0  0  0  0  0
    7.6072  -26.9081  -12.4269 H   0  0  0  0  0  0  0  0  0  0  0  0
    7.7361  -25.1715  -12.0540 H   0  0  0  0  0  0  0  0  0  0  0  0
    8.5687  -25.8252  -13.4636 H   0  0  0  0  0  0  0  0  0  0  0  0
  1  2  1  0  0  0  0
  1  3  2  0  0  0  0
  2  4  2  0  0  0  0
  3  7  1  0  0  0  0
  4  8  1  0  0  0  0
  5  6  2  0  0  0  0
  5  9  1  0  0  0  0
  6 10  1  0  0  0  0
  7  8  2  0  0  0  0
  7 13  1  0  0  0  0
  8 18  1  0  0  0  0
  9 11  1  0  0  0  0
  9 14  2  0  0  0  0
 10 15  2  0  0  0  0
 10 19  1  0  0  0  0
 11 16  2  0  0  0  0
 11 18  1  0  0  0  0
 12 17  2  0  0  0  0
 12 18  1  0  0  0  0
 12 20  1  0  0  0  0
 14 15  1  0  0  0  0
 16 17  1  0  0  0  0
  1 21  1  0  0  0  0
  2 22  1  0  0  0  0
  3 23  1  0  0  0  0
  4 24  1  0  0  0  0
  5 25  1  0  0  0  0
  6 26  1  0  0  0  0
 13 27  1  0  0  0  0
 13 28  1  0  0  0  0
 13 29  1  0  0  0  0
M  CHG  2  19  -1  20  -1
M  END
> <Hybrid2>
-4.8008012771606445

> <Hybrid2>
-4.800801

$$$$
C17784574
  -OEChem-02152218493D

 29 31  0     0  0  0  0  0  0999 V2000
   12.1418  -27.0766  -11.7467 C   0  0  0  0  0  0  0  0  0  0  0  0
   12.1620  -26.7727  -10.3855 C   0  0  0  0  0  0  0  0  0  0  0  0
   11.0053  -26.7994  -12.5065 C   0  0  0  0  0  0  0  0  0  0  0  0
   11.0457  -26.1916   -9.7841 C   0  0  0  0  0  0  0  0  0  0  0  0
    6.5971  -28.0686   -8.6639 C   0  0  0  0  0  0  0  0  0  0  0  0
    6.5764  -29.4521   -8.6445 C   0  0  0  0  0  0  0  0  0  0  0  0
    9.8890  -26.2183  -11.9050 C   0  0  0  0  0  0  0  0  0  0  0  0
    9.9092  -25.9144  -10.5438 C   0  0  0  0  0  0  0  0  0  0  0  0
    7.6691  -27.4469   -9.2720 C   0  0  0  0  0  0  0  0  0  0  0  0
    7.6290  -30.1223   -9.2348 C   0  0  0  0  0  0  0  0  0  0  0  0
    7.7806  -26.0084   -9.3415 C   0  0  0  0  0  0  0  0  0  0  0  0
    8.5250  -24.0158   -9.7709 C   0  0  0  0  0  0  0  0  0  0  0  0
    8.6868  -25.9340  -12.7469 C   0  0  0  0  0  0  0  0  0  0  0  0
    8.6857  -28.1282   -9.8418 N   0  0  0  0  0  0  0  0  0  0  0  0
    8.6652  -29.4879   -9.8230 N   0  0  0  0  0  0  0  0  0  0  0  0
    6.9130  -25.1497   -8.8555 N   0  0  0  0  0  0  0  0  0  0  0  0
    7.3866  -23.8819   -9.1287 N   0  0  0  0  0  0  0  0  0  0  0  0
    8.8116  -25.3380   -9.9267 N   0  0  0  0  0  0  0  0  0  0  0  0
    7.6850  -31.3974   -9.2615 O   0  5  0  0  0  0  0  0  0  0  0  0
    9.4924  -22.7312  -10.3231 S   0  5  0  0  0  0  0  0  0  0  0  0
   13.0112  -27.5287  -12.2151 H   0  0  0  0  0  0  0  0  0  0  0  0
   13.0468  -26.9888   -9.7939 H   0  0  0  0  0  0  0  0  0  0  0  0
   11.0000  -27.0405  -13.5661 H   0  0  0  0  0  0  0  0  0  0  0  0
   11.0775  -25.9613   -8.7219 H   0  0  0  0  0  0  0  0  0  0  0  0
    5.7892  -27.5032   -8.2109 H   0  0  0  0  0  0  0  0  0  0  0  0
    5.7455  -29.9712   -8.1751 H   0  0  0  0  0  0  0  0  0  0  0  0
    8.0114  -26.7968  -12.7457 H   0  0  0  0  0  0  0  0  0  0  0  0
    8.1403  -25.0602  -12.3728 H   0  0  0  0  0  0  0  0  0  0  0  0
    8.9729  -25.7139  -13.7823 H   0  0  0  0  0  0  0  0  0  0  0  0
  1  2  1  0  0  0  0
  1  3  2  0  0  0  0
  2  4  2  0  0  0  0
  3  7  1  0  0  0  0
  4  8  1  0  0  0  0
  5  6  2  0  0  0  0
  5  9  1  0  0  0  0
  6 10  1  0  0  0  0
  7  8  2  0  0  0  0
  7 13  1  0  0  0  0
  8 18  1  0  0  0  0
  9 11  1  0  0  0  0
  9 14  2  0  0  0  0
 10 15  2  0  0  0  0
 10 19  1  0  0  0  0
 11 16  2  0  0  0  0
 11 18  1  0  0  0  0
 12 17  2  0  0  0  0
 12 18  1  0  0  0  0
 12 20  1  0  0  0  0
 14 15  1  0  0  0  0
 16 17  1  0  0  0  0
  1 21  1  0  0  0  0
  2 22  1  0  0  0  0
  3 23  1  0  0  0  0
  4 24  1  0  0  0  0
  5 25  1  0  0  0  0
  6 26  1  0  0  0  0
 13 27  1  0  0  0  0
 13 28  1  0  0  0  0
 13 29  1  0  0  0  0
M  CHG  2  19  -1  20  -1
M  END
> <Hybrid2>
-4.8008012771606445

> <Hybrid2>
-4.724450

$$$$
C38058941
  -OEChem-02152218493D

 28 29  0     0  0  0  0  0  0999 V2000
   10.7503  -27.1182  -12.6279 C   0  0  0  0  0  0  0  0  0  0  0  0
    9.4201  -26.7921  -12.2350 C   0  0  0  0  0  0  0  0  0  0  0  0
   11.6781  -26.7274  -11.6877 C   0  0  0  0  0  0  0  0  0  0  0  0
    9.3819  -26.1645  -11.0092 C   0  0  0  0  0  0  0  0  0  0  0  0
    7.7793  -28.8442   -8.9064 C   0  0  0  0  0  0  0  0  0  0  0  0
    7.1172  -29.9901   -9.1061 C   0  0  0  0  0  0  0  0  0  0  0  0
    5.8087  -27.5448   -9.2575 C   0  0  0  0  0  0  0  0  0  0  0  0
    7.1266  -27.5444   -8.9779 C   0  0  0  0  0  0  0  0  0  0  0  0
    5.6610  -29.9695   -9.4139 C   0  0  0  0  0  0  0  0  0  0  0  0
   13.1886  -26.9416  -11.8259 C   0  0  0  0  0  0  0  0  0  0  0  0
    3.6543  -28.5921   -9.7681 C   0  0  0  0  0  0  0  0  0  0  0  0
    7.9655  -26.5116   -8.7468 N   0  5  0  0  0  0  0  0  0  0  0  0
    5.0782  -28.7015   -9.4720 N   0  0  0  0  0  0  0  0  0  0  0  0
   13.9024  -26.5245  -10.8749 O   0  5  0  0  0  0  0  0  0  0  0  0
    5.0760  -31.0362   -9.5929 O   0  0  0  0  0  0  0  0  0  0  0  0
   13.5787  -27.5148  -12.8781 O   0  0  0  0  0  0  0  0  0  0  0  0
    8.4974  -24.1652   -9.6929 O   0  0  0  0  0  0  0  0  0  0  0  0
    6.8961  -25.5762  -10.9044 O   0  0  0  0  0  0  0  0  0  0  0  0
   10.9451  -25.9707  -10.3377 S   0  0  0  0  0  0  0  0  0  0  0  0
    8.0380  -25.5200   -9.9936 S   0  0  0  0  0  0  0  0  0  0  0  0
   11.0072  -27.6148  -13.5551 H   0  0  0  0  0  0  0  0  0  0  0  0
    8.5372  -27.0076  -12.8229 H   0  0  0  0  0  0  0  0  0  0  0  0
    8.8424  -28.8893   -8.6816 H   0  0  0  0  0  0  0  0  0  0  0  0
    7.6146  -30.9511   -9.0488 H   0  0  0  0  0  0  0  0  0  0  0  0
    5.2516  -26.6150   -9.3280 H   0  0  0  0  0  0  0  0  0  0  0  0
    3.5105  -28.5123  -10.8557 H   0  0  0  0  0  0  0  0  0  0  0  0
    3.1324  -29.4853   -9.3939 H   0  0  0  0  0  0  0  0  0  0  0  0
    3.2456  -27.6963   -9.2777 H   0  0  0  0  0  0  0  0  0  0  0  0
  1  2  1  0  0  0  0
  1  3  2  0  0  0  0
  2  4  2  0  0  0  0
  3 10  1  0  0  0  0
  3 19  1  0  0  0  0
  4 19  1  0  0  0  0
  4 20  1  0  0  0  0
  5  6  2  0  0  0  0
  5  8  1  0  0  0  0
  6  9  1  0  0  0  0
  7  8  2  0  0  0  0
  7 13  1  0  0  0  0
  8 12  1  0  0  0  0
  9 13  1  0  0  0  0
  9 15  2  0  0  0  0
 10 14  1  0  0  0  0
 10 16  2  0  0  0  0
 11 13  1  0  0  0  0
 12 20  1  0  0  0  0
 17 20  2  0  0  0  0
 18 20  2  0  0  0  0
  1 21  1  0  0  0  0
  2 22  1  0  0  0  0
  5 23  1  0  0  0  0
  6 24  1  0  0  0  0
  7 25  1  0  0  0  0
 11 26  1  0  0  0  0
 11 27  1  0  0  0  0
 11 28  1  0  0  0  0
M  CHG  2  12  -1  14  -1
M  END
> <Hybrid2>
-3.9431819915771484

> <Hybrid2>
-3.943182

$$$$
C38058941
  -OEChem-02152218493D

 28 29  0     0  0  0  0  0  0999 V2000
   11.7515  -27.5213  -12.4899 C   0  0  0  0  0  0  0  0  0  0  0  0
   10.3606  -27.2486  -12.3448 C   0  0  0  0  0  0  0  0  0  0  0  0
   12.5321  -26.5851  -11.8482 C   0  0  0  0  0  0  0  0  0  0  0  0
   10.1310  -26.1144  -11.5974 C   0  0  0  0  0  0  0  0  0  0  0  0
    6.6972  -26.4018   -8.3752 C   0  0  0  0  0  0  0  0  0  0  0  0
    5.8886  -27.3907   -7.9757 C   0  0  0  0  0  0  0  0  0  0  0  0
    8.1103  -27.9192   -9.5566 C   0  0  0  0  0  0  0  0  0  0  0  0
    7.8704  -26.6413   -9.2040 C   0  0  0  0  0  0  0  0  0  0  0  0
    6.1707  -28.7964   -8.3758 C   0  0  0  0  0  0  0  0  0  0  0  0
   14.0636  -26.6096  -11.8243 C   0  0  0  0  0  0  0  0  0  0  0  0
    7.6534  -30.3250   -9.6064 C   0  0  0  0  0  0  0  0  0  0  0  0
    8.5551  -25.5153   -9.4991 N   0  5  0  0  0  0  0  0  0  0  0  0
    7.3053  -28.9776   -9.1701 N   0  0  0  0  0  0  0  0  0  0  0  0
   14.6285  -25.6778  -11.1915 O   0  5  0  0  0  0  0  0  0  0  0  0
    5.4121  -29.6864   -7.9956 O   0  0  0  0  0  0  0  0  0  0  0  0
   14.6179  -27.5592  -12.4398 O   0  0  0  0  0  0  0  0  0  0  0  0
    8.8940  -23.8856  -11.4771 O   0  0  0  0  0  0  0  0  0  0  0  0
    7.5945  -25.9317  -11.8608 O   0  0  0  0  0  0  0  0  0  0  0  0
   11.5886  -25.3834  -11.0746 S   0  0  0  0  0  0  0  0  0  0  0  0
    8.6291  -25.2650  -11.0723 S   0  0  0  0  0  0  0  0  0  0  0  0
   12.1532  -28.3638  -13.0387 H   0  0  0  0  0  0  0  0  0  0  0  0
    9.5699  -27.8548  -12.7677 H   0  0  0  0  0  0  0  0  0  0  0  0
    6.4659  -25.3842   -8.0692 H   0  0  0  0  0  0  0  0  0  0  0  0
    5.0178  -27.1988   -7.3599 H   0  0  0  0  0  0  0  0  0  0  0  0
    8.9660  -28.1780  -10.1734 H   0  0  0  0  0  0  0  0  0  0  0  0
    8.3175  -30.7914   -8.8638 H   0  0  0  0  0  0  0  0  0  0  0  0
    6.7374  -30.9256   -9.7075 H   0  0  0  0  0  0  0  0  0  0  0  0
    8.1677  -30.2744  -10.5775 H   0  0  0  0  0  0  0  0  0  0  0  0
  1  2  1  0  0  0  0
  1  3  2  0  0  0  0
  2  4  2  0  0  0  0
  3 10  1  0  0  0  0
  3 19  1  0  0  0  0
  4 19  1  0  0  0  0
  4 20  1  0  0  0  0
  5  6  2  0  0  0  0
  5  8  1  0  0  0  0
  6  9  1  0  0  0  0
  7  8  2  0  0  0  0
  7 13  1  0  0  0  0
  8 12  1  0  0  0  0
  9 13  1  0  0  0  0
  9 15  2  0  0  0  0
 10 14  1  0  0  0  0
 10 16  2  0  0  0  0
 11 13  1  0  0  0  0
 12 20  1  0  0  0  0
 17 20  2  0  0  0  0
 18 20  2  0  0  0  0
  1 21  1  0  0  0  0
  2 22  1  0  0  0  0
  5 23  1  0  0  0  0
  6 24  1  0  0  0  0
  7 25  1  0  0  0  0
 11 26  1  0  0  0  0
 11 27  1  0  0  0  0
 11 28  1  0  0  0  0
M  CHG  2  12  -1  14  -1
M  END
> <Hybrid2>
-3.9431819915771484

> <Hybrid2>
-3.402432

$$$$
C04041216
  -OEChem-02152218493D

 34 36  0     0  0  0  0  0  0999 V2000
   11.6505  -26.5911  -10.5608 C   0  0  0  0  0  0  0  0  0  0  0  0
   10.2880  -26.7523  -12.5495 C   0  0  0  0  0  0  0  0  0  0  0  0
   12.7731  -26.9642  -11.2997 C   0  0  0  0  0  0  0  0  0  0  0  0
   11.4108  -27.1254  -13.2884 C   0  0  0  0  0  0  0  0  0  0  0  0
   10.4079  -26.4851  -11.1857 C   0  0  0  0  0  0  0  0  0  0  0  0
    8.7162  -24.8444  -10.1599 C   0  0  0  0  0  0  0  0  0  0  0  0
    7.5507  -25.0064   -9.3468 C   0  0  0  0  0  0  0  0  0  0  0  0
   12.6533  -27.2314  -12.6635 C   0  0  0  0  0  0  0  0  0  0  0  0
    9.2458  -26.0990  -10.4210 C   0  0  0  0  0  0  0  0  0  0  0  0
    7.4165  -26.3540   -9.1449 C   0  0  0  0  0  0  0  0  0  0  0  0
    9.2758  -23.5142  -10.6537 C   0  0  0  0  0  0  0  0  0  0  0  0
    6.6412  -23.9115   -8.8153 C   0  0  0  0  0  0  0  0  0  0  0  0
    6.5423  -27.3336   -8.4697 C   0  0  0  0  0  0  0  0  0  0  0  0
    6.9816  -28.6613   -9.1382 C   0  0  0  0  0  0  0  0  0  0  0  0
    8.4097  -28.4216   -9.6602 C   0  0  0  0  0  0  0  0  0  0  0  0
   13.8536  -27.6307  -13.4532 C   0  0  0  0  0  0  0  0  0  0  0  0
    8.4414  -26.9782   -9.7914 N   0  0  0  0  0  0  0  0  0  0  0  0
   10.3186  -23.5673  -11.3645 O   0  5  0  0  0  0  0  0  0  0  0  0
    6.9356  -23.4211   -7.6862 O   0  5  0  0  0  0  0  0  0  0  0  0
    8.6489  -22.4732  -10.3093 O   0  0  0  0  0  0  0  0  0  0  0  0
    5.6616  -23.5775   -9.5437 O   0  0  0  0  0  0  0  0  0  0  0  0
   11.7601  -26.3864   -9.4985 H   0  0  0  0  0  0  0  0  0  0  0  0
    9.3264  -26.6737  -13.0511 H   0  0  0  0  0  0  0  0  0  0  0  0
   13.7372  -27.0447  -10.8045 H   0  0  0  0  0  0  0  0  0  0  0  0
   11.3078  -27.3316  -14.3505 H   0  0  0  0  0  0  0  0  0  0  0  0
    6.7495  -27.3561   -7.3947 H   0  0  0  0  0  0  0  0  0  0  0  0
    5.4787  -27.1388   -8.6310 H   0  0  0  0  0  0  0  0  0  0  0  0
    6.9200  -29.5152   -8.4569 H   0  0  0  0  0  0  0  0  0  0  0  0
    6.3184  -28.8714   -9.9877 H   0  0  0  0  0  0  0  0  0  0  0  0
    9.1722  -28.7064   -8.9295 H   0  0  0  0  0  0  0  0  0  0  0  0
    8.5898  -28.8894  -10.6310 H   0  0  0  0  0  0  0  0  0  0  0  0
   13.9707  -28.7213  -13.4452 H   0  0  0  0  0  0  0  0  0  0  0  0
   13.7737  -27.2971  -14.4960 H   0  0  0  0  0  0  0  0  0  0  0  0
   14.7675  -27.1797  -13.0448 H   0  0  0  0  0  0  0  0  0  0  0  0
  1  3  2  0  0  0  0
  1  5  1  0  0  0  0
  2  4  1  0  0  0  0
  2  5  2  0  0  0  0
  3  8  1  0  0  0  0
  4  8  2  0  0  0  0
  5  9  1  0  0  0  0
  6  7  1  0  0  0  0
  6  9  2  0  0  0  0
  6 11  1  0  0  0  0
  7 10  2  0  0  0  0
  7 12  1  0  0  0  0
  8 16  1  0  0  0  0
  9 17  1  0  0  0  0
 10 13  1  0  0  0  0
 10 17  1  0  0  0  0
 11 18  1  0  0  0  0
 11 20  2  0  0  0  0
 12 19  1  0  0  0  0
 12 21  2  0  0  0  0
 13 14  1  0  0  0  0
 14 15  1  0  0  0  0
 15 17  1  0  0  0  0
  1 22  1  0  0  0  0
  2 23  1  0  0  0  0
  3 24  1  0  0  0  0
  4 25  1  0  0  0  0
 13 26  1  0  0  0  0
 13 27  1  0  0  0  0
 14 28  1  0  0  0  0
 14 29  1  0  0  0  0
 15 30  1  0  0  0  0
 15 31  1  0  0  0  0
 16 32  1  0  0  0  0
 16 33  1  0  0  0  0
 16 34  1  0  0  0  0
M  CHG  2  18  -1  19  -1
M  END
> <Hybrid2>
-6.458428859710693

> <Hybrid2>
-6.458429

$$$$
C04041216
  -OEChem-02152218493D

 34 36  0     0  0  0  0  0  0999 V2000
   10.5245  -27.0125   -9.3958 C   0  0  0  0  0  0  0  0  0  0  0  0
    9.8169  -27.1838  -11.6995 C   0  0  0  0  0  0  0  0  0  0  0  0
   11.8513  -26.9016   -9.8116 C   0  0  0  0  0  0  0  0  0  0  0  0
   11.1437  -27.0727  -12.1153 C   0  0  0  0  0  0  0  0  0  0  0  0
    9.5073  -27.1537  -10.3397 C   0  0  0  0  0  0  0  0  0  0  0  0
    7.1754  -26.2916   -9.6876 C   0  0  0  0  0  0  0  0  0  0  0  0
    5.9672  -26.9315   -9.2675 C   0  0  0  0  0  0  0  0  0  0  0  0
   12.1609  -26.9316  -11.1713 C   0  0  0  0  0  0  0  0  0  0  0  0
    8.1340  -27.2687   -9.9094 C   0  0  0  0  0  0  0  0  0  0  0  0
    6.2378  -28.2736   -9.2503 C   0  0  0  0  0  0  0  0  0  0  0  0
    7.3697  -24.7888   -9.8611 C   0  0  0  0  0  0  0  0  0  0  0  0
    4.6485  -26.2644   -8.9144 C   0  0  0  0  0  0  0  0  0  0  0  0
    5.5973  -29.5716   -8.9597 C   0  0  0  0  0  0  0  0  0  0  0  0
    6.5963  -30.5671   -9.6029 C   0  0  0  0  0  0  0  0  0  0  0  0
    7.9482  -29.8331   -9.6619 C   0  0  0  0  0  0  0  0  0  0  0  0
   13.5795  -26.8134  -11.6158 C   0  0  0  0  0  0  0  0  0  0  0  0
    7.5353  -28.4438   -9.6319 N   0  0  0  0  0  0  0  0  0  0  0  0
    8.5117  -24.4055  -10.2411 O   0  5  0  0  0  0  0  0  0  0  0  0
    4.4820  -25.9304   -7.7050 O   0  5  0  0  0  0  0  0  0  0  0  0
    6.3722  -24.0559   -9.6097 O   0  0  0  0  0  0  0  0  0  0  0  0
    3.8216  -26.0963   -9.8577 O   0  0  0  0  0  0  0  0  0  0  0  0
   10.2994  -26.9877   -8.3322 H   0  0  0  0  0  0  0  0  0  0  0  0
    9.0351  -27.2929  -12.4475 H   0  0  0  0  0  0  0  0  0  0  0  0
   12.6375  -26.7923   -9.0693 H   0  0  0  0  0  0  0  0  0  0  0  0
   11.3753  -27.0972  -13.1768 H   0  0  0  0  0  0  0  0  0  0  0  0
    5.5326  -29.7343   -7.8787 H   0  0  0  0  0  0  0  0  0  0  0  0
    4.6015  -29.6645   -9.4016 H   0  0  0  0  0  0  0  0  0  0  0  0
    6.6549  -31.5143   -9.0584 H   0  0  0  0  0  0  0  0  0  0  0  0
    6.2662  -30.7962  -10.6247 H   0  0  0  0  0  0  0  0  0  0  0  0
    8.5602  -30.0180   -8.7743 H   0  0  0  0  0  0  0  0  0  0  0  0
    8.5018  -30.0389  -10.5810 H   0  0  0  0  0  0  0  0  0  0  0  0
   14.0423  -27.8055  -11.6844 H   0  0  0  0  0  0  0  0  0  0  0  0
   13.6504  -26.3279  -12.5978 H   0  0  0  0  0  0  0  0  0  0  0  0
   14.1665  -26.2033  -10.9168 H   0  0  0  0  0  0  0  0  0  0  0  0
  1  3  2  0  0  0  0
  1  5  1  0  0  0  0
  2  4  1  0  0  0  0
  2  5  2  0  0  0  0
  3  8  1  0  0  0  0
  4  8  2  0  0  0  0
  5  9  1  0  0  0  0
  6  7  1  0  0  0  0
  6  9  2  0  0  0  0
  6 11  1  0  0  0  0
  7 10  2  0  0  0  0
  7 12  1  0  0  0  0
  8 16  1  0  0  0  0
  9 17  1  0  0  0  0
 10 13  1  0  0  0  0
 10 17  1  0  0  0  0
 11 18  1  0  0  0  0
 11 20  2  0  0  0  0
 12 19  1  0  0  0  0
 12 21  2  0  0  0  0
 13 14  1  0  0  0  0
 14 15  1  0  0  0  0
 15 17  1  0  0  0  0
  1 22  1  0  0  0  0
  2 23  1  0  0  0  0
  3 24  1  0  0  0  0
  4 25  1  0  0  0  0
 13 26  1  0  0  0  0
 13 27  1  0  0  0  0
 14 28  1  0  0  0  0
 14 29  1  0  0  0  0
 15 30  1  0  0  0  0
 15 31  1  0  0  0  0
 16 32  1  0  0  0  0
 16 33  1  0  0  0  0
 16 34  1  0  0  0  0
M  CHG  2  18  -1  19  -1
M  END
> <Hybrid2>
-6.458428859710693

> <Hybrid2>
-6.115186

$$$$
C13302813
  -OEChem-02152218493D

 37 39  0     1  0  0  0  0  0999 V2000
    6.1665  -27.5380   -8.5866 C   0  0  0  0  0  0  0  0  0  0  0  0
    7.1095  -29.5047   -9.6258 C   0  0  0  0  0  0  0  0  0  0  0  0
    4.8878  -28.0777   -8.7255 C   0  0  0  0  0  0  0  0  0  0  0  0
    5.8308  -30.0445   -9.7646 C   0  0  0  0  0  0  0  0  0  0  0  0
    7.2774  -28.2515   -9.0368 C   0  0  0  0  0  0  0  0  0  0  0  0
    4.7200  -29.3310   -9.3144 C   0  0  0  0  0  0  0  0  0  0  0  0
    9.4087  -27.4072   -9.9086 C   0  0  0  0  0  0  0  0  0  0  0  0
   10.7631  -26.8334   -9.7216 C   0  0  0  0  0  0  0  0  0  0  0  0
   10.2239  -27.1653  -11.8508 C   0  0  0  0  0  0  0  0  0  0  0  0
    8.5924  -27.6963   -8.8940 C   0  0  0  0  0  0  0  0  0  0  0  0
    3.3708  -29.9005   -9.4609 C   0  0  0  0  0  0  0  0  0  0  0  0
   15.7822  -27.9035  -11.2637 C   0  0  0  0  0  0  0  0  0  0  0  0
   14.9069  -26.8541  -11.9015 C   0  0  0  0  0  0  0  0  0  0  0  0
   15.0759  -28.1414   -9.9459 C   0  0  0  0  0  0  0  0  0  0  0  0
   13.5236  -27.3138  -11.4747 C   0  0  2  0  0  0  0  0  0  0  0  0
   12.5032  -26.1934  -11.4217 C   0  0  0  0  0  0  0  0  0  0  0  0
    9.1492  -27.5827  -11.2464 N   0  0  0  0  0  0  0  0  0  0  0  0
   11.2315  -26.7034  -11.0198 N   0  0  0  0  0  0  0  0  0  0  0  0
    3.2432  -31.0592  -10.0085 O   0  5  0  0  0  0  0  0  0  0  0  0
   11.2981  -26.5573   -8.6650 O   0  0  0  0  0  0  0  0  0  0  0  0
    2.3619  -29.2213   -9.0371 O   0  0  0  0  0  0  0  0  0  0  0  0
   13.6797  -27.8939  -10.1686 O   0  0  0  0  0  0  0  0  0  0  0  0
   10.2456  -27.2462  -13.6410 S   0  5  0  0  0  0  0  0  0  0  0  0
    6.2814  -26.5600   -8.1255 H   0  0  0  0  0  0  0  0  0  0  0  0
    7.9658  -30.0728   -9.9814 H   0  0  0  0  0  0  0  0  0  0  0  0
    4.0289  -27.5135   -8.3714 H   0  0  0  0  0  0  0  0  0  0  0  0
    5.7110  -31.0219  -10.2249 H   0  0  0  0  0  0  0  0  0  0  0  0
    8.9397  -27.4695   -7.8856 H   0  0  0  0  0  0  0  0  0  0  0  0
   15.7663  -28.8186  -11.8675 H   0  0  0  0  0  0  0  0  0  0  0  0
   16.8232  -27.5936  -11.1405 H   0  0  0  0  0  0  0  0  0  0  0  0
   15.1437  -25.8706  -11.4777 H   0  0  0  0  0  0  0  0  0  0  0  0
   15.0194  -26.7959  -12.9876 H   0  0  0  0  0  0  0  0  0  0  0  0
   15.2151  -29.1599   -9.5728 H   0  0  0  0  0  0  0  0  0  0  0  0
   15.4200  -27.4385   -9.1797 H   0  0  0  0  0  0  0  0  0  0  0  0
   13.1657  -28.1082  -12.1406 H   0  0  0  0  0  0  0  0  0  0  0  0
   12.8572  -25.4537  -10.7006 H   0  0  0  0  0  0  0  0  0  0  0  0
   12.4353  -25.7567  -12.4202 H   0  0  0  0  0  0  0  0  0  0  0  0
  1  3  1  0  0  0  0
  1  5  2  0  0  0  0
  2  4  2  0  0  0  0
  2  5  1  0  0  0  0
  3  6  2  0  0  0  0
  4  6  1  0  0  0  0
  5 10  1  0  0  0  0
  6 11  1  0  0  0  0
  7  8  1  0  0  0  0
  7 10  2  0  0  0  0
  7 17  1  0  0  0  0
  8 18  1  0  0  0  0
  8 20  2  0  0  0  0
  9 17  2  0  0  0  0
  9 18  1  0  0  0  0
  9 23  1  0  0  0  0
 11 19  1  0  0  0  0
 11 21  2  0  0  0  0
 12 13  1  0  0  0  0
 12 14  1  0  0  0  0
 13 15  1  0  0  0  0
 14 22  1  0  0  0  0
 15 16  1  0  0  0  0
 15 22  1  0  0  0  0
 16 18  1  0  0  0  0
  1 24  1  0  0  0  0
  2 25  1  0  0  0  0
  3 26  1  0  0  0  0
  4 27  1  0  0  0  0
 10 28  1  0  0  0  0
 12 29  1  0  0  0  0
 12 30  1  0  0  0  0
 13 31  1  0  0  0  0
 13 32  1  0  0  0  0
 14 33  1  0  0  0  0
 14 34  1  0  0  0  0
 15 35  1  0  0  0  0
 16 36  1  0  0  0  0
 16 37  1  0  0  0  0
M  CHG  2  19  -1  23  -1
M  END
> <Hybrid2>
-6.023303508758545

> <Hybrid2>
-6.023304

$$$$
C13302813
  -OEChem-02152218493D

 37 39  0     1  0  0  0  0  0999 V2000
    6.0425  -27.2339   -8.6600 C   0  0  0  0  0  0  0  0  0  0  0  0
    6.9603  -29.2488   -9.6269 C   0  0  0  0  0  0  0  0  0  0  0  0
    4.7522  -27.7102   -8.8920 C   0  0  0  0  0  0  0  0  0  0  0  0
    5.6700  -29.7252   -9.8589 C   0  0  0  0  0  0  0  0  0  0  0  0
    7.1466  -28.0032   -9.0275 C   0  0  0  0  0  0  0  0  0  0  0  0
    4.5659  -28.9559   -9.4914 C   0  0  0  0  0  0  0  0  0  0  0  0
    9.3752  -27.2687   -9.7410 C   0  0  0  0  0  0  0  0  0  0  0  0
   10.7391  -26.7619   -9.4554 C   0  0  0  0  0  0  0  0  0  0  0  0
   10.3413  -27.0749  -11.6184 C   0  0  0  0  0  0  0  0  0  0  0  0
    8.4736  -27.5131   -8.7889 C   0  0  0  0  0  0  0  0  0  0  0  0
    3.2045  -29.4585   -9.7362 C   0  0  0  0  0  0  0  0  0  0  0  0
   15.7983  -28.0849  -10.6255 C   0  0  0  0  0  0  0  0  0  0  0  0
   15.0251  -26.9959  -11.3260 C   0  0  0  0  0  0  0  0  0  0  0  0
   14.9866  -28.2824   -9.3630 C   0  0  0  0  0  0  0  0  0  0  0  0
   13.5932  -27.3850  -11.0015 C   0  0  2  0  0  0  0  0  0  0  0  0
   12.6285  -26.2153  -11.0237 C   0  0  0  0  0  0  0  0  0  0  0  0
    9.2058  -27.4363  -11.0942 N   0  0  0  0  0  0  0  0  0  0  0  0
   11.3071  -26.6602  -10.7159 N   0  0  0  0  0  0  0  0  0  0  0  0
    3.0600  -30.6116  -10.2914 O   0  5  0  0  0  0  0  0  0  0  0  0
   11.2084  -26.5085   -8.3625 O   0  0  0  0  0  0  0  0  0  0  0  0
    2.2022  -28.7287   -9.3876 O   0  0  0  0  0  0  0  0  0  0  0  0
   13.6243  -27.9671   -9.6874 O   0  0  0  0  0  0  0  0  0  0  0  0
   10.4898  -27.1637  -13.4022 S   0  5  0  0  0  0  0  0  0  0  0  0
    6.1718  -26.2609   -8.1919 H   0  0  0  0  0  0  0  0  0  0  0  0
    7.8110  -29.8599   -9.9187 H   0  0  0  0  0  0  0  0  0  0  0  0
    3.8988  -27.1028   -8.6020 H   0  0  0  0  0  0  0  0  0  0  0  0
    5.5358  -30.6972  -10.3265 H   0  0  0  0  0  0  0  0  0  0  0  0
    8.7570  -27.3000   -7.7578 H   0  0  0  0  0  0  0  0  0  0  0  0
   15.7812  -29.0004  -11.2287 H   0  0  0  0  0  0  0  0  0  0  0  0
   16.8415  -27.8264  -10.4265 H   0  0  0  0  0  0  0  0  0  0  0  0
   15.2788  -26.0238  -10.8862 H   0  0  0  0  0  0  0  0  0  0  0  0
   15.2195  -26.9476  -12.4010 H   0  0  0  0  0  0  0  0  0  0  0  0
   15.0474  -29.3052   -8.9805 H   0  0  0  0  0  0  0  0  0  0  0  0
   15.3082  -27.5945   -8.5738 H   0  0  0  0  0  0  0  0  0  0  0  0
   13.2460  -28.1633  -11.6917 H   0  0  0  0  0  0  0  0  0  0  0  0
   12.9651  -25.4913  -10.2788 H   0  0  0  0  0  0  0  0  0  0  0  0
   12.6555  -25.7796  -12.0245 H   0  0  0  0  0  0  0  0  0  0  0  0
  1  3  1  0  0  0  0
  1  5  2  0  0  0  0
  2  4  2  0  0  0  0
  2  5  1  0  0  0  0
  3  6  2  0  0  0  0
  4  6  1  0  0  0  0
  5 10  1  0  0  0  0
  6 11  1  0  0  0  0
  7  8  1  0  0  0  0
  7 10  2  0  0  0  0
  7 17  1  0  0  0  0
  8 18  1  0  0  0  0
  8 20  2  0  0  0  0
  9 17  2  0  0  0  0
  9 18  1  0  0  0  0
  9 23  1  0  0  0  0
 11 19  1  0  0  0  0
 11 21  2  0  0  0  0
 12 13  1  0  0  0  0
 12 14  1  0  0  0  0
 13 15  1  0  0  0  0
 14 22  1  0  0  0  0
 15 16  1  0  0  0  0
 15 22  1  0  0  0  0
 16 18  1  0  0  0  0
  1 24  1  0  0  0  0
  2 25  1  0  0  0  0
  3 26  1  0  0  0  0
  4 27  1  0  0  0  0
 10 28  1  0  0  0  0
 12 29  1  0  0  0  0
 12 30  1  0  0  0  0
 13 31  1  0  0  0  0
 13 32  1  0  0  0  0
 14 33  1  0  0  0  0
 14 34  1  0  0  0  0
 15 35  1  0  0  0  0
 16 36  1  0  0  0  0
 16 37  1  0  0  0  0
M  CHG  2  19  -1  23  -1
M  END
> <Hybrid2>
-6.023303508758545

> <Hybrid2>
-5.900935

$$$$
C41125469
  -OEChem-02152218493D

 33 34  0     0  0  0  0  0  0999 V2000
    8.3670  -26.2377   -9.1256 C   0  0  0  0  0  0  0  0  0  0  0  0
    9.3541  -25.7711   -9.9589 C   0  0  0  0  0  0  0  0  0  0  0  0
    8.6637  -27.6037   -8.9590 C   0  0  0  0  0  0  0  0  0  0  0  0
   13.3906  -26.8162  -12.6092 C   0  0  0  0  0  0  0  0  0  0  0  0
   13.5050  -27.1729  -11.2901 C   0  0  0  0  0  0  0  0  0  0  0  0
   11.2855  -26.8394  -11.0404 C   0  0  0  0  0  0  0  0  0  0  0  0
    9.5086  -24.3389  -10.4663 C   0  0  0  0  0  0  0  0  0  0  0  0
   14.5485  -26.7828  -13.5497 C   0  0  0  0  0  0  0  0  0  0  0  0
    7.3420  -30.1128  -10.1193 C   0  0  0  0  0  0  0  0  0  0  0  0
    6.0486  -30.3046   -7.9853 C   0  0  0  0  0  0  0  0  0  0  0  0
    7.9032  -28.6154   -8.1367 C   0  0  0  0  0  0  0  0  0  0  0  0
    6.7906  -29.3427   -8.9167 C   0  0  0  0  0  0  0  0  0  0  0  0
   12.1989  -26.4702  -13.1290 N   0  0  0  0  0  0  0  0  0  0  0  0
    9.7538  -27.9805   -9.6325 N   0  0  0  0  0  0  0  0  0  0  0  0
   12.4455  -27.1931  -10.4673 N   0  0  0  0  0  0  0  0  0  0  0  0
   11.1134  -26.4801  -12.3277 N   0  0  0  0  0  0  0  0  0  0  0  0
   10.1508  -26.8443  -10.2305 N   0  0  0  0  0  0  0  0  0  0  0  0
   14.6131  -27.5083  -10.7496 O   0  5  0  0  0  0  0  0  0  0  0  0
   10.4893  -24.1127  -11.2280 O   0  5  0  0  0  0  0  0  0  0  0  0
    8.6422  -23.5066  -10.0794 O   0  0  0  0  0  0  0  0  0  0  0  0
    7.5509  -25.6710   -8.7004 H   0  0  0  0  0  0  0  0  0  0  0  0
   14.6693  -27.7561  -14.0403 H   0  0  0  0  0  0  0  0  0  0  0  0
   14.4103  -26.0172  -14.3237 H   0  0  0  0  0  0  0  0  0  0  0  0
   15.4808  -26.5392  -13.0242 H   0  0  0  0  0  0  0  0  0  0  0  0
    8.0771  -30.8627   -9.8080 H   0  0  0  0  0  0  0  0  0  0  0  0
    7.8237  -29.4403  -10.8359 H   0  0  0  0  0  0  0  0  0  0  0  0
    6.5360  -30.6309  -10.6502 H   0  0  0  0  0  0  0  0  0  0  0  0
    6.7305  -31.0621   -7.5846 H   0  0  0  0  0  0  0  0  0  0  0  0
    5.5989  -29.7721   -7.1402 H   0  0  0  0  0  0  0  0  0  0  0  0
    5.2494  -30.8269   -8.5218 H   0  0  0  0  0  0  0  0  0  0  0  0
    8.5999  -29.3484   -7.7089 H   0  0  0  0  0  0  0  0  0  0  0  0
    7.4691  -28.0868   -7.2772 H   0  0  0  0  0  0  0  0  0  0  0  0
    6.0629  -28.6093   -9.2870 H   0  0  0  0  0  0  0  0  0  0  0  0
  1  2  2  0  0  0  0
  1  3  1  0  0  0  0
  2  7  1  0  0  0  0
  2 17  1  0  0  0  0
  3 11  1  0  0  0  0
  3 14  2  0  0  0  0
  4  5  1  0  0  0  0
  4  8  1  0  0  0  0
  4 13  2  0  0  0  0
  5 15  2  0  0  0  0
  5 18  1  0  0  0  0
  6 15  1  0  0  0  0
  6 16  2  0  0  0  0
  6 17  1  0  0  0  0
  7 19  1  0  0  0  0
  7 20  2  0  0  0  0
  9 12  1  0  0  0  0
 10 12  1  0  0  0  0
 11 12  1  0  0  0  0
 13 16  1  0  0  0  0
 14 17  1  0  0  0  0
  1 21  1  0  0  0  0
  8 22  1  0  0  0  0
  8 23  1  0  0  0  0
  8 24  1  0  0  0  0
  9 25  1  0  0  0  0
  9 26  1  0  0  0  0
  9 27  1  0  0  0  0
 10 28  1  0  0  0  0
 10 29  1  0  0  0  0
 10 30  1  0  0  0  0
 11 31  1  0  0  0  0
 11 32  1  0  0  0  0
 12 33  1  0  0  0  0
M  CHG  2  18  -1  19  -1
M  END
> <Hybrid2>
-3.408731460571289

> <Hybrid2>
-3.408731

$$$$
C41125469
  -OEChem-02152218493D

 33 34  0     0  0  0  0  0  0999 V2000
    8.0090  -26.0029   -9.3860 C   0  0  0  0  0  0  0  0  0  0  0  0
    8.9329  -25.5714  -10.3062 C   0  0  0  0  0  0  0  0  0  0  0  0
    8.3717  -27.3374   -9.1224 C   0  0  0  0  0  0  0  0  0  0  0  0
   12.8742  -26.6825  -13.0704 C   0  0  0  0  0  0  0  0  0  0  0  0
   13.0688  -26.9209  -11.7341 C   0  0  0  0  0  0  0  0  0  0  0  0
   10.8522  -26.6529  -11.3959 C   0  0  0  0  0  0  0  0  0  0  0  0
    9.0007  -24.1827  -10.9382 C   0  0  0  0  0  0  0  0  0  0  0  0
   13.9816  -26.6848  -14.0704 C   0  0  0  0  0  0  0  0  0  0  0  0
    7.1025  -29.9849   -9.9989 C   0  0  0  0  0  0  0  0  0  0  0  0
    5.9257  -30.0439   -7.7909 C   0  0  0  0  0  0  0  0  0  0  0  0
    7.6967  -28.3038   -8.1799 C   0  0  0  0  0  0  0  0  0  0  0  0
    6.5789  -29.1371   -8.8369 C   0  0  0  0  0  0  0  0  0  0  0  0
   11.6445  -26.4280  -13.5533 N   0  0  0  0  0  0  0  0  0  0  0  0
    9.4422  -27.7280   -9.8190 N   0  0  0  0  0  0  0  0  0  0  0  0
   12.0532  -26.9118  -10.8576 N   0  0  0  0  0  0  0  0  0  0  0  0
   10.6014  -26.4113  -12.6977 N   0  0  0  0  0  0  0  0  0  0  0  0
    9.7602  -26.6324  -10.5295 N   0  0  0  0  0  0  0  0  0  0  0  0
   14.2157  -27.1664  -11.2271 O   0  5  0  0  0  0  0  0  0  0  0  0
    9.9319  -23.9846  -11.7668 O   0  5  0  0  0  0  0  0  0  0  0  0
    8.1198  -23.3543  -10.5764 O   0  0  0  0  0  0  0  0  0  0  0  0
    7.1915  -25.4338   -8.9667 H   0  0  0  0  0  0  0  0  0  0  0  0
   14.1194  -27.6910  -14.4842 H   0  0  0  0  0  0  0  0  0  0  0  0
   13.7727  -25.9937  -14.8969 H   0  0  0  0  0  0  0  0  0  0  0  0
   14.9275  -26.3618  -13.6170 H   0  0  0  0  0  0  0  0  0  0  0  0
    7.8835  -30.6769   -9.6657 H   0  0  0  0  0  0  0  0  0  0  0  0
    7.5190  -29.3579  -10.7933 H   0  0  0  0  0  0  0  0  0  0  0  0
    6.2941  -30.5769  -10.4415 H   0  0  0  0  0  0  0  0  0  0  0  0
    6.6583  -30.7379   -7.3653 H   0  0  0  0  0  0  0  0  0  0  0  0
    5.4961  -29.4592   -6.9702 H   0  0  0  0  0  0  0  0  0  0  0  0
    5.1239  -30.6404   -8.2390 H   0  0  0  0  0  0  0  0  0  0  0  0
    8.4444  -28.9705   -7.7302 H   0  0  0  0  0  0  0  0  0  0  0  0
    7.2835  -27.7210   -7.3455 H   0  0  0  0  0  0  0  0  0  0  0  0
    5.8032  -28.4663   -9.2278 H   0  0  0  0  0  0  0  0  0  0  0  0
  1  2  2  0  0  0  0
  1  3  1  0  0  0  0
  2  7  1  0  0  0  0
  2 17  1  0  0  0  0
  3 11  1  0  0  0  0
  3 14  2  0  0  0  0
  4  5  1  0  0  0  0
  4  8  1  0  0  0  0
  4 13  2  0  0  0  0
  5 15  2  0  0  0  0
  5 18  1  0  0  0  0
  6 15  1  0  0  0  0
  6 16  2  0  0  0  0
  6 17  1  0  0  0  0
  7 19  1  0  0  0  0
  7 20  2  0  0  0  0
  9 12  1  0  0  0  0
 10 12  1  0  0  0  0
 11 12  1  0  0  0  0
 13 16  1  0  0  0  0
 14 17  1  0  0  0  0
  1 21  1  0  0  0  0
  8 22  1  0  0  0  0
  8 23  1  0  0  0  0
  8 24  1  0  0  0  0
  9 25  1  0  0  0  0
  9 26  1  0  0  0  0
  9 27  1  0  0  0  0
 10 28  1  0  0  0  0
 10 29  1  0  0  0  0
 10 30  1  0  0  0  0
 11 31  1  0  0  0  0
 11 32  1  0  0  0  0
 12 33  1  0  0  0  0
M  CHG  2  18  -1  19  -1
M  END
> <Hybrid2>
-3.408731460571289

> <Hybrid2>
-3.241134

$$$$
C41894504
  -OEChem-02152218493D

 41 42  0     1  0  0  0  0  0999 V2000
   12.7488  -26.7078  -13.0541 C   0  0  0  0  0  0  0  0  0  0  0  0
   11.8208  -25.9817  -13.6763 C   0  0  0  0  0  0  0  0  0  0  0  0
   12.5180  -26.9904  -11.6180 C   0  0  0  0  0  0  0  0  0  0  0  0
   10.6298  -25.4934  -12.9507 C   0  0  0  0  0  0  0  0  0  0  0  0
    9.7750  -24.0364  -10.1993 C   0  0  0  0  0  0  0  0  0  0  0  0
    6.9051  -25.0740   -9.5010 C   0  0  0  0  0  0  0  0  0  0  0  0
    6.8314  -25.3939  -10.9834 C   0  0  0  0  0  0  0  0  0  0  0  0
    7.9404  -25.9273   -8.7668 C   0  0  0  0  0  0  0  0  0  0  0  0
    8.1727  -25.2189  -11.7045 C   0  0  0  0  0  0  0  0  0  0  0  0
    9.1654  -26.3470   -9.6149 C   0  0  2  0  0  0  0  0  0  0  0  0
    9.4105  -25.3965  -10.8086 C   0  0  2  0  0  0  0  0  0  0  0  0
   10.1432  -28.6502   -9.4059 C   0  0  0  0  0  0  0  0  0  0  0  0
    9.1317  -27.9117  -11.5780 C   0  0  0  0  0  0  0  0  0  0  0  0
    7.6604  -28.3565   -9.5972 C   0  0  0  0  0  0  0  0  0  0  0  0
    9.0252  -27.8166  -10.0491 C   0  0  0  0  0  0  0  0  0  0  0  0
   11.4853  -26.5767  -10.9553 N   0  0  0  0  0  0  0  0  0  0  0  0
   10.5406  -25.8321  -11.6075 N   0  0  0  0  0  0  0  0  0  0  0  0
   13.4891  -27.6704  -11.2429 O   0  5  0  0  0  0  0  0  0  0  0  0
   10.7808  -24.0394   -9.4367 O   0  5  0  0  0  0  0  0  0  0  0  0
    9.7950  -24.8251  -13.5599 O   0  0  0  0  0  0  0  0  0  0  0  0
    9.0189  -23.0837  -10.5399 O   0  0  0  0  0  0  0  0  0  0  0  0
   13.6208  -27.0628  -13.5956 H   0  0  0  0  0  0  0  0  0  0  0  0
   11.9155  -25.7316  -14.7269 H   0  0  0  0  0  0  0  0  0  0  0  0
    7.1545  -24.0105   -9.3663 H   0  0  0  0  0  0  0  0  0  0  0  0
    5.9181  -25.2215   -9.0396 H   0  0  0  0  0  0  0  0  0  0  0  0
    6.4702  -26.4284  -11.1229 H   0  0  0  0  0  0  0  0  0  0  0  0
    6.0762  -24.7474  -11.4636 H   0  0  0  0  0  0  0  0  0  0  0  0
    8.2884  -25.3707   -7.8724 H   0  0  0  0  0  0  0  0  0  0  0  0
    7.4393  -26.8304   -8.3603 H   0  0  0  0  0  0  0  0  0  0  0  0
    8.2145  -25.9196  -12.5619 H   0  0  0  0  0  0  0  0  0  0  0  0
    8.1823  -24.2127  -12.1701 H   0  0  0  0  0  0  0  0  0  0  0  0
   10.0458  -26.3062   -8.9518 H   0  0  0  0  0  0  0  0  0  0  0  0
   10.0696  -29.7039   -9.6972 H   0  0  0  0  0  0  0  0  0  0  0  0
   10.0933  -28.6024   -8.3122 H   0  0  0  0  0  0  0  0  0  0  0  0
   11.1316  -28.2883   -9.7106 H   0  0  0  0  0  0  0  0  0  0  0  0
    9.0353  -28.9490  -11.9178 H   0  0  0  0  0  0  0  0  0  0  0  0
    8.3447  -27.3264  -12.0667 H   0  0  0  0  0  0  0  0  0  0  0  0
   10.0971  -27.5333  -11.9323 H   0  0  0  0  0  0  0  0  0  0  0  0
    7.5314  -29.4038   -9.8931 H   0  0  0  0  0  0  0  0  0  0  0  0
    6.8400  -27.7814  -10.0408 H   0  0  0  0  0  0  0  0  0  0  0  0
    7.5546  -28.3027   -8.5078 H   0  0  0  0  0  0  0  0  0  0  0  0
  1  2  2  0  0  0  0
  1  3  1  0  0  0  0
  2  4  1  0  0  0  0
  3 16  2  0  0  0  0
  3 18  1  0  0  0  0
  4 17  1  0  0  0  0
  4 20  2  0  0  0  0
  5 11  1  0  0  0  0
  5 19  1  0  0  0  0
  5 21  2  0  0  0  0
  6  7  1  0  0  0  0
  6  8  1  0  0  0  0
  7  9  1  0  0  0  0
  8 10  1  0  0  0  0
  9 11  1  0  0  0  0
 10 11  1  0  0  0  0
 10 15  1  0  0  0  0
 11 17  1  0  0  0  0
 12 15  1  0  0  0  0
 13 15  1  0  0  0  0
 14 15  1  0  0  0  0
 16 17  1  0  0  0  0
  1 22  1  0  0  0  0
  2 23  1  0  0  0  0
  6 24  1  0  0  0  0
  6 25  1  0  0  0  0
  7 26  1  0  0  0  0
  7 27  1  0  0  0  0
  8 28  1  0  0  0  0
  8 29  1  0  0  0  0
  9 30  1  0  0  0  0
  9 31  1  0  0  0  0
 10 32  1  0  0  0  0
 12 33  1  0  0  0  0
 12 34  1  0  0  0  0
 12 35  1  0  0  0  0
 13 36  1  0  0  0  0
 13 37  1  0  0  0  0
 13 38  1  0  0  0  0
 14 39  1  0  0  0  0
 14 40  1  0  0  0  0
 14 41  1  0  0  0  0
M  CHG  2  18  -1  19  -1
M  END
> <Hybrid2>
-2.614285945892334

> <Hybrid2>
-2.614286

$$$$
C41894504
  -OEChem-02152218493D

 41 42  0     1  0  0  0  0  0999 V2000
    6.0534  -28.9295   -9.0528 C   0  0  0  0  0  0  0  0  0  0  0  0
    7.1752  -29.6187   -9.2584 C   0  0  0  0  0  0  0  0  0  0  0  0
    6.1520  -27.4547   -9.1565 C   0  0  0  0  0  0  0  0  0  0  0  0
    8.4421  -28.9261   -9.5726 C   0  0  0  0  0  0  0  0  0  0  0  0
   10.2678  -26.4462   -8.6026 C   0  0  0  0  0  0  0  0  0  0  0  0
   11.7616  -25.3968  -11.1458 C   0  0  0  0  0  0  0  0  0  0  0  0
   11.4839  -26.7872  -11.6892 C   0  0  0  0  0  0  0  0  0  0  0  0
   10.4845  -24.5807  -10.9406 C   0  0  0  0  0  0  0  0  0  0  0  0
   10.5476  -27.6073  -10.7946 C   0  0  0  0  0  0  0  0  0  0  0  0
    9.2282  -25.4081  -10.5759 C   0  0  2  0  0  0  0  0  0  0  0  0
    9.5833  -26.7699   -9.9371 C   0  0  2  0  0  0  0  0  0  0  0  0
    6.9862  -24.8349  -11.5500 C   0  0  0  0  0  0  0  0  0  0  0  0
    8.0533  -27.0416  -12.0774 C   0  0  0  0  0  0  0  0  0  0  0  0
    9.0077  -24.9281  -13.0304 C   0  0  0  0  0  0  0  0  0  0  0  0
    8.3187  -25.5533  -11.8086 C   0  0  0  0  0  0  0  0  0  0  0  0
    7.2468  -26.8194   -9.4299 N   0  0  0  0  0  0  0  0  0  0  0  0
    8.3908  -27.5405   -9.6386 N   0  0  0  0  0  0  0  0  0  0  0  0
    5.0091  -27.0190   -8.9325 O   0  5  0  0  0  0  0  0  0  0  0  0
    9.5812  -25.7580   -7.7976 O   0  5  0  0  0  0  0  0  0  0  0  0
    9.4572  -29.5974   -9.7554 O   0  0  0  0  0  0  0  0  0  0  0  0
   11.4355  -26.9115   -8.4797 O   0  0  0  0  0  0  0  0  0  0  0  0
    5.1267  -29.4471   -8.8229 H   0  0  0  0  0  0  0  0  0  0  0  0
    7.1870  -30.7012   -9.2008 H   0  0  0  0  0  0  0  0  0  0  0  0
   12.2956  -25.4767  -10.1868 H   0  0  0  0  0  0  0  0  0  0  0  0
   12.4325  -24.8577  -11.8300 H   0  0  0  0  0  0  0  0  0  0  0  0
   11.0517  -26.7106  -12.7029 H   0  0  0  0  0  0  0  0  0  0  0  0
   12.4358  -27.3327  -11.8118 H   0  0  0  0  0  0  0  0  0  0  0  0
   10.6691  -23.8274  -10.1472 H   0  0  0  0  0  0  0  0  0  0  0  0
   10.2875  -23.9845  -11.8559 H   0  0  0  0  0  0  0  0  0  0  0  0
    9.9810  -28.3209  -11.4252 H   0  0  0  0  0  0  0  0  0  0  0  0
   11.1730  -28.2510  -10.1437 H   0  0  0  0  0  0  0  0  0  0  0  0
    8.6559  -24.8181   -9.8407 H   0  0  0  0  0  0  0  0  0  0  0  0
    6.3156  -24.9209  -12.4123 H   0  0  0  0  0  0  0  0  0  0  0  0
    7.1430  -23.7681  -11.3548 H   0  0  0  0  0  0  0  0  0  0  0  0
    6.4695  -25.2601  -10.6823 H   0  0  0  0  0  0  0  0  0  0  0  0
    7.4067  -27.1768  -12.9517 H   0  0  0  0  0  0  0  0  0  0  0  0
    8.9874  -27.5822  -12.2669 H   0  0  0  0  0  0  0  0  0  0  0  0
    7.5607  -27.5172  -11.2219 H   0  0  0  0  0  0  0  0  0  0  0  0
    8.3822  -25.0165  -13.9258 H   0  0  0  0  0  0  0  0  0  0  0  0
    9.9635  -25.4206  -13.2415 H   0  0  0  0  0  0  0  0  0  0  0  0
    9.2098  -23.8632  -12.8689 H   0  0  0  0  0  0  0  0  0  0  0  0
  1  2  2  0  0  0  0
  1  3  1  0  0  0  0
  2  4  1  0  0  0  0
  3 16  2  0  0  0  0
  3 18  1  0  0  0  0
  4 17  1  0  0  0  0
  4 20  2  0  0  0  0
  5 11  1  0  0  0  0
  5 19  1  0  0  0  0
  5 21  2  0  0  0  0
  6  7  1  0  0  0  0
  6  8  1  0  0  0  0
  7  9  1  0  0  0  0
  8 10  1  0  0  0  0
  9 11  1  0  0  0  0
 10 11  1  0  0  0  0
 10 15  1  0  0  0  0
 11 17  1  0  0  0  0
 12 15  1  0  0  0  0
 13 15  1  0  0  0  0
 14 15  1  0  0  0  0
 16 17  1  0  0  0  0
  1 22  1  0  0  0  0
  2 23  1  0  0  0  0
  6 24  1  0  0  0  0
  6 25  1  0  0  0  0
  7 26  1  0  0  0  0
  7 27  1  0  0  0  0
  8 28  1  0  0  0  0
  8 29  1  0  0  0  0
  9 30  1  0  0  0  0
  9 31  1  0  0  0  0
 10 32  1  0  0  0  0
 12 33  1  0  0  0  0
 12 34  1  0  0  0  0
 12 35  1  0  0  0  0
 13 36  1  0  0  0  0
 13 37  1  0  0  0  0
 13 38  1  0  0  0  0
 14 39  1  0  0  0  0
 14 40  1  0  0  0  0
 14 41  1  0  0  0  0
M  CHG  2  18  -1  19  -1
M  END
> <Hybrid2>
-2.614285945892334

> <Hybrid2>
-2.496282

$$$$
C41894508
  -OEChem-02152218493D

 41 42  0     1  0  0  0  0  0999 V2000
    6.5356  -26.7230   -9.3292 C   0  0  0  0  0  0  0  0  0  0  0  0
    7.3880  -27.7452   -9.3947 C   0  0  0  0  0  0  0  0  0  0  0  0
    7.0628  -25.3934   -9.7161 C   0  0  0  0  0  0  0  0  0  0  0  0
    8.7839  -27.5397   -9.8337 C   0  0  0  0  0  0  0  0  0  0  0  0
   10.5913  -24.4396  -10.8994 C   0  0  0  0  0  0  0  0  0  0  0  0
   13.2629  -26.9710  -10.9933 C   0  0  0  0  0  0  0  0  0  0  0  0
   12.9280  -26.0602   -9.8198 C   0  0  0  0  0  0  0  0  0  0  0  0
   12.3601  -26.6996  -12.1918 C   0  0  0  0  0  0  0  0  0  0  0  0
   11.4531  -26.1646   -9.4267 C   0  0  0  0  0  0  0  0  0  0  0  0
   10.8698  -26.8101  -11.8235 C   0  0  1  0  0  0  0  0  0  0  0  0
   10.4891  -25.9380  -10.6044 C   0  0  2  0  0  0  0  0  0  0  0  0
    8.5258  -26.7728  -12.7129 C   0  0  0  0  0  0  0  0  0  0  0  0
   10.4189  -27.4790  -14.1974 C   0  0  0  0  0  0  0  0  0  0  0  0
   10.1952  -25.0791  -13.5072 C   0  0  0  0  0  0  0  0  0  0  0  0
   10.0034  -26.5356  -13.0589 C   0  0  0  0  0  0  0  0  0  0  0  0
    8.2799  -25.1818  -10.1045 N   0  0  0  0  0  0  0  0  0  0  0  0
    9.1384  -26.2422  -10.1650 N   0  0  0  0  0  0  0  0  0  0  0  0
    6.1158  -24.5984   -9.5837 O   0  5  0  0  0  0  0  0  0  0  0  0
    9.7776  -23.7093  -10.2689 O   0  5  0  0  0  0  0  0  0  0  0  0
    9.5412  -28.5086   -9.8805 O   0  0  0  0  0  0  0  0  0  0  0  0
   11.4804  -24.1246  -11.7394 O   0  0  0  0  0  0  0  0  0  0  0  0
    5.5113  -26.8836   -9.0059 H   0  0  0  0  0  0  0  0  0  0  0  0
    7.0802  -28.7500   -9.1286 H   0  0  0  0  0  0  0  0  0  0  0  0
   14.3104  -26.8295  -11.2822 H   0  0  0  0  0  0  0  0  0  0  0  0
   13.1564  -28.0185  -10.6854 H   0  0  0  0  0  0  0  0  0  0  0  0
   13.5532  -26.3269   -8.9599 H   0  0  0  0  0  0  0  0  0  0  0  0
   13.1748  -25.0232  -10.0769 H   0  0  0  0  0  0  0  0  0  0  0  0
   12.5832  -25.7063  -12.5989 H   0  0  0  0  0  0  0  0  0  0  0  0
   12.5985  -27.4190  -12.9850 H   0  0  0  0  0  0  0  0  0  0  0  0
   11.2845  -27.1670   -9.0091 H   0  0  0  0  0  0  0  0  0  0  0  0
   11.2546  -25.4522   -8.6148 H   0  0  0  0  0  0  0  0  0  0  0  0
   10.6973  -27.8603  -11.5438 H   0  0  0  0  0  0  0  0  0  0  0  0
    7.8802  -26.5842  -13.5780 H   0  0  0  0  0  0  0  0  0  0  0  0
    8.1983  -26.1121  -11.9023 H   0  0  0  0  0  0  0  0  0  0  0  0
    8.3564  -27.8060  -12.3896 H   0  0  0  0  0  0  0  0  0  0  0  0
    9.8152  -27.3052  -15.0953 H   0  0  0  0  0  0  0  0  0  0  0  0
   11.4702  -27.3319  -14.4690 H   0  0  0  0  0  0  0  0  0  0  0  0
   10.2929  -28.5287  -13.9091 H   0  0  0  0  0  0  0  0  0  0  0  0
    9.5867  -24.8537  -14.3903 H   0  0  0  0  0  0  0  0  0  0  0  0
   11.2414  -24.8770  -13.7628 H   0  0  0  0  0  0  0  0  0  0  0  0
    9.9045  -24.3800  -12.7149 H   0  0  0  0  0  0  0  0  0  0  0  0
  1  2  2  0  0  0  0
  1  3  1  0  0  0  0
  2  4  1  0  0  0  0
  3 16  2  0  0  0  0
  3 18  1  0  0  0  0
  4 17  1  0  0  0  0
  4 20  2  0  0  0  0
  5 11  1  0  0  0  0
  5 19  1  0  0  0  0
  5 21  2  0  0  0  0
  6  7  1  0  0  0  0
  6  8  1  0  0  0  0
  7  9  1  0  0  0  0
  8 10  1  0  0  0  0
  9 11  1  0  0  0  0
 10 11  1  0  0  0  0
 10 15  1  0  0  0  0
 11 17  1  0  0  0  0
 12 15  1  0  0  0  0
 13 15  1  0  0  0  0
 14 15  1  0  0  0  0
 16 17  1  0  0  0  0
  1 22  1  0  0  0  0
  2 23  1  0  0  0  0
  6 24  1  0  0  0  0
  6 25  1  0  0  0  0
  7 26  1  0  0  0  0
  7 27  1  0  0  0  0
  8 28  1  0  0  0  0
  8 29  1  0  0  0  0
  9 30  1  0  0  0  0
  9 31  1  0  0  0  0
 10 32  1  0  0  0  0
 12 33  1  0  0  0  0
 12 34  1  0  0  0  0
 12 35  1  0  0  0  0
 13 36  1  0  0  0  0
 13 37  1  0  0  0  0
 13 38  1  0  0  0  0
 14 39  1  0  0  0  0
 14 40  1  0  0  0  0
 14 41  1  0  0  0  0
M  CHG  2  18  -1  19  -1
M  END
> <Hybrid2>
-3.6506755352020264

> <Hybrid2>
-3.650676

$$$$
C41894508
  -OEChem-02152218493D

 41 42  0     1  0  0  0  0  0999 V2000
   13.3476  -26.9058  -12.4395 C   0  0  0  0  0  0  0  0  0  0  0  0
   13.1424  -27.0136  -11.1273 C   0  0  0  0  0  0  0  0  0  0  0  0
   12.1552  -26.6408  -13.2782 C   0  0  0  0  0  0  0  0  0  0  0  0
   11.7856  -26.8725  -10.5594 C   0  0  0  0  0  0  0  0  0  0  0  0
    8.4901  -26.2137  -12.2082 C   0  0  0  0  0  0  0  0  0  0  0  0
    7.5229  -26.6631   -8.6845 C   0  0  0  0  0  0  0  0  0  0  0  0
    7.5485  -27.7457   -9.7550 C   0  0  0  0  0  0  0  0  0  0  0  0
    7.9283  -25.3053   -9.2475 C   0  0  0  0  0  0  0  0  0  0  0  0
    8.9118  -27.8259  -10.4447 C   0  0  0  0  0  0  0  0  0  0  0  0
    9.3033  -25.3580   -9.9372 C   0  0  1  0  0  0  0  0  0  0  0  0
    9.3953  -26.4757  -11.0021 C   0  0  2  0  0  0  0  0  0  0  0  0
   10.9019  -23.4370   -9.7355 C   0  0  0  0  0  0  0  0  0  0  0  0
    8.4904  -23.0102  -10.2730 C   0  0  0  0  0  0  0  0  0  0  0  0
    9.9858  -24.0753  -11.9805 C   0  0  0  0  0  0  0  0  0  0  0  0
    9.6699  -23.9717  -10.4809 C   0  0  0  0  0  0  0  0  0  0  0  0
   10.9546  -26.5124  -12.8103 N   0  0  0  0  0  0  0  0  0  0  0  0
   10.7647  -26.6262  -11.4626 N   0  0  0  0  0  0  0  0  0  0  0  0
   12.5681  -26.5781  -14.4495 O   0  5  0  0  0  0  0  0  0  0  0  0
    8.9133  -26.6656  -13.3081 O   0  5  0  0  0  0  0  0  0  0  0  0
   11.6364  -26.9791   -9.3424 O   0  0  0  0  0  0  0  0  0  0  0  0
    7.4315  -25.5761  -11.9473 O   0  0  0  0  0  0  0  0  0  0  0  0
   14.3485  -27.0105  -12.8480 H   0  0  0  0  0  0  0  0  0  0  0  0
   13.9627  -27.2068  -10.4454 H   0  0  0  0  0  0  0  0  0  0  0  0
    6.5185  -26.5968   -8.2514 H   0  0  0  0  0  0  0  0  0  0  0  0
    8.2033  -26.9385   -7.8693 H   0  0  0  0  0  0  0  0  0  0  0  0
    7.3134  -28.7150   -9.3005 H   0  0  0  0  0  0  0  0  0  0  0  0
    6.7646  -27.5488  -10.4960 H   0  0  0  0  0  0  0  0  0  0  0  0
    7.1598  -24.9566   -9.9476 H   0  0  0  0  0  0  0  0  0  0  0  0
    7.9540  -24.5755   -8.4288 H   0  0  0  0  0  0  0  0  0  0  0  0
    9.6409  -28.1961   -9.7107 H   0  0  0  0  0  0  0  0  0  0  0  0
    8.8595  -28.5822  -11.2394 H   0  0  0  0  0  0  0  0  0  0  0  0
   10.0355  -25.5923   -9.1499 H   0  0  0  0  0  0  0  0  0  0  0  0
   11.1888  -22.4453  -10.1029 H   0  0  0  0  0  0  0  0  0  0  0  0
   11.7627  -24.1026   -9.8657 H   0  0  0  0  0  0  0  0  0  0  0  0
   10.7070  -23.3507   -8.6607 H   0  0  0  0  0  0  0  0  0  0  0  0
    8.7244  -22.0093  -10.6529 H   0  0  0  0  0  0  0  0  0  0  0  0
    7.5948  -23.3642  -10.7957 H   0  0  0  0  0  0  0  0  0  0  0  0
    8.2399  -22.9132   -9.2106 H   0  0  0  0  0  0  0  0  0  0  0  0
   10.2518  -23.0973  -12.3971 H   0  0  0  0  0  0  0  0  0  0  0  0
    9.1245  -24.4538  -12.5423 H   0  0  0  0  0  0  0  0  0  0  0  0
   10.8266  -24.7545  -12.1615 H   0  0  0  0  0  0  0  0  0  0  0  0
  1  2  2  0  0  0  0
  1  3  1  0  0  0  0
  2  4  1  0  0  0  0
  3 16  2  0  0  0  0
  3 18  1  0  0  0  0
  4 17  1  0  0  0  0
  4 20  2  0  0  0  0
  5 11  1  0  0  0  0
  5 19  1  0  0  0  0
  5 21  2  0  0  0  0
  6  7  1  0  0  0  0
  6  8  1  0  0  0  0
  7  9  1  0  0  0  0
  8 10  1  0  0  0  0
  9 11  1  0  0  0  0
 10 11  1  0  0  0  0
 10 15  1  0  0  0  0
 11 17  1  0  0  0  0
 12 15  1  0  0  0  0
 13 15  1  0  0  0  0
 14 15  1  0  0  0  0
 16 17  1  0  0  0  0
  1 22  1  0  0  0  0
  2 23  1  0  0  0  0
  6 24  1  0  0  0  0
  6 25  1  0  0  0  0
  7 26  1  0  0  0  0
  7 27  1  0  0  0  0
  8 28  1  0  0  0  0
  8 29  1  0  0  0  0
  9 30  1  0  0  0  0
  9 31  1  0  0  0  0
 10 32  1  0  0  0  0
 12 33  1  0  0  0  0
 12 34  1  0  0  0  0
 12 35  1  0  0  0  0
 13 36  1  0  0  0  0
 13 37  1  0  0  0  0
 13 38  1  0  0  0  0
 14 39  1  0  0  0  0
 14 40  1  0  0  0  0
 14 41  1  0  0  0  0
M  CHG  2  18  -1  19  -1
M  END
> <Hybrid2>
-3.6506755352020264

> <Hybrid2>
-3.570258

$$$$
C44260379
  -OEChem-02152218493D

 30 31  0     0  0  0  0  0  0999 V2000
   10.8339  -26.1004  -12.1106 C   0  0  0  0  0  0  0  0  0  0  0  0
    9.6361  -25.9053  -11.4232 C   0  0  0  0  0  0  0  0  0  0  0  0
   11.8296  -27.0257  -10.1133 C   0  0  0  0  0  0  0  0  0  0  0  0
    7.4669  -29.4705   -9.5475 C   0  0  0  0  0  0  0  0  0  0  0  0
    6.7906  -30.6449   -7.5930 C   0  0  0  0  0  0  0  0  0  0  0  0
    6.3409  -28.3973   -7.7485 C   0  0  0  0  0  0  0  0  0  0  0  0
   11.9307  -26.6606  -11.4557 C   0  0  0  0  0  0  0  0  0  0  0  0
   10.6317  -26.8306   -9.4258 C   0  0  0  0  0  0  0  0  0  0  0  0
    9.5350  -26.2704  -10.0807 C   0  0  0  0  0  0  0  0  0  0  0  0
    7.4002  -30.6639   -8.8372 C   0  0  0  0  0  0  0  0  0  0  0  0
    6.9296  -28.3109   -8.9998 C   0  0  0  0  0  0  0  0  0  0  0  0
   13.1946  -26.8661  -12.1814 C   0  0  0  0  0  0  0  0  0  0  0  0
   10.5668  -27.2362   -7.9869 C   0  0  0  0  0  0  0  0  0  0  0  0
    6.2574  -29.5383   -7.0284 N   0  0  0  0  0  0  0  0  0  0  0  0
    8.3674  -26.0711   -9.4349 N   0  5  0  0  0  0  0  0  0  0  0  0
   14.1924  -27.3849  -11.5538 O   0  5  0  0  0  0  0  0  0  0  0  0
   13.2614  -26.5201  -13.4202 O   0  0  0  0  0  0  0  0  0  0  0  0
    6.9475  -27.1741  -11.2870 O   0  0  0  0  0  0  0  0  0  0  0  0
    5.7858  -26.0691   -9.4279 O   0  0  0  0  0  0  0  0  0  0  0  0
    7.9094  -31.7945   -9.3395 F   0  0  0  0  0  0  0  0  0  0  0  0
    6.9961  -26.7446   -9.8910 S   0  0  0  0  0  0  0  0  0  0  0  0
   10.9025  -25.8115  -13.1562 H   0  0  0  0  0  0  0  0  0  0  0  0
    8.7929  -25.4657  -11.9520 H   0  0  0  0  0  0  0  0  0  0  0  0
   12.6847  -27.4634   -9.6030 H   0  0  0  0  0  0  0  0  0  0  0  0
    7.9387  -29.4546  -10.5262 H   0  0  0  0  0  0  0  0  0  0  0  0
    6.7137  -31.5493   -6.9987 H   0  0  0  0  0  0  0  0  0  0  0  0
    5.9041  -27.5267   -7.2689 H   0  0  0  0  0  0  0  0  0  0  0  0
   10.8634  -26.3995   -7.3456 H   0  0  0  0  0  0  0  0  0  0  0  0
    9.5531  -27.5486   -7.7115 H   0  0  0  0  0  0  0  0  0  0  0  0
   11.2304  -28.0854   -7.7872 H   0  0  0  0  0  0  0  0  0  0  0  0
  1  2  2  0  0  0  0
  1  7  1  0  0  0  0
  2  9  1  0  0  0  0
  3  7  2  0  0  0  0
  3  8  1  0  0  0  0
  4 10  2  0  0  0  0
  4 11  1  0  0  0  0
  5 10  1  0  0  0  0
  5 14  2  0  0  0  0
  6 11  2  0  0  0  0
  6 14  1  0  0  0  0
  7 12  1  0  0  0  0
  8  9  2  0  0  0  0
  8 13  1  0  0  0  0
  9 15  1  0  0  0  0
 10 20  1  0  0  0  0
 11 21  1  0  0  0  0
 12 16  1  0  0  0  0
 12 17  2  0  0  0  0
 15 21  1  0  0  0  0
 18 21  2  0  0  0  0
 19 21  2  0  0  0  0
  1 22  1  0  0  0  0
  2 23  1  0  0  0  0
  3 24  1  0  0  0  0
  4 25  1  0  0  0  0
  5 26  1  0  0  0  0
  6 27  1  0  0  0  0
 13 28  1  0  0  0  0
 13 29  1  0  0  0  0
 13 30  1  0  0  0  0
M  CHG  2  15  -1  16  -1
M  END
> <Hybrid2>
-3.534616708755493

> <Hybrid2>
-3.534617

$$$$
C44260379
  -OEChem-02152218493D

 30 31  0     0  0  0  0  0  0999 V2000
   11.2021  -25.6384  -11.2592 C   0  0  0  0  0  0  0  0  0  0  0  0
   10.0382  -25.4179  -10.5229 C   0  0  0  0  0  0  0  0  0  0  0  0
   11.6651  -27.6074   -9.9380 C   0  0  0  0  0  0  0  0  0  0  0  0
    5.7806  -28.1594   -8.2939 C   0  0  0  0  0  0  0  0  0  0  0  0
    5.6268  -30.2889   -9.3419 C   0  0  0  0  0  0  0  0  0  0  0  0
    6.7550  -28.6014  -10.4179 C   0  0  0  0  0  0  0  0  0  0  0  0
   12.0156  -26.7332  -10.9668 C   0  0  0  0  0  0  0  0  0  0  0  0
   10.5012  -27.3869   -9.2016 C   0  0  0  0  0  0  0  0  0  0  0  0
    9.6877  -26.2922   -9.4940 C   0  0  0  0  0  0  0  0  0  0  0  0
    5.3277  -29.4736   -8.2623 C   0  0  0  0  0  0  0  0  0  0  0  0
    6.5085  -27.7070   -9.3888 C   0  0  0  0  0  0  0  0  0  0  0  0
   13.2438  -26.9654  -11.7439 C   0  0  0  0  0  0  0  0  0  0  0  0
   10.1629  -28.3492   -8.1067 C   0  0  0  0  0  0  0  0  0  0  0  0
    6.3313  -29.8852  -10.4228 N   0  0  0  0  0  0  0  0  0  0  0  0
    8.5585  -26.0588   -8.7937 N   0  5  0  0  0  0  0  0  0  0  0  0
   13.9776  -27.9832  -11.4538 O   0  5  0  0  0  0  0  0  0  0  0  0
   13.5445  -26.1429  -12.6883 O   0  0  0  0  0  0  0  0  0  0  0  0
    7.1036  -25.7368  -10.9013 O   0  0  0  0  0  0  0  0  0  0  0  0
    6.0984  -25.2809   -8.7086 O   0  0  0  0  0  0  0  0  0  0  0  0
    4.6246  -29.9355   -7.2220 F   0  0  0  0  0  0  0  0  0  0  0  0
    7.1135  -26.0100   -9.4658 S   0  0  0  0  0  0  0  0  0  0  0  0
   11.4667  -24.9506  -12.0581 H   0  0  0  0  0  0  0  0  0  0  0  0
    9.4182  -24.5576  -10.7661 H   0  0  0  0  0  0  0  0  0  0  0  0
   12.2991  -28.4616   -9.7107 H   0  0  0  0  0  0  0  0  0  0  0  0
    5.5617  -27.4965   -7.4613 H   0  0  0  0  0  0  0  0  0  0  0  0
    5.2957  -31.3219   -9.3660 H   0  0  0  0  0  0  0  0  0  0  0  0
    7.3176  -28.3075  -11.2987 H   0  0  0  0  0  0  0  0  0  0  0  0
   10.6089  -28.0183   -7.1628 H   0  0  0  0  0  0  0  0  0  0  0  0
    9.0779  -28.4291   -7.9743 H   0  0  0  0  0  0  0  0  0  0  0  0
   10.5335  -29.3544   -8.3379 H   0  0  0  0  0  0  0  0  0  0  0  0
  1  2  2  0  0  0  0
  1  7  1  0  0  0  0
  2  9  1  0  0  0  0
  3  7  2  0  0  0  0
  3  8  1  0  0  0  0
  4 10  2  0  0  0  0
  4 11  1  0  0  0  0
  5 10  1  0  0  0  0
  5 14  2  0  0  0  0
  6 11  2  0  0  0  0
  6 14  1  0  0  0  0
  7 12  1  0  0  0  0
  8  9  2  0  0  0  0
  8 13  1  0  0  0  0
  9 15  1  0  0  0  0
 10 20  1  0  0  0  0
 11 21  1  0  0  0  0
 12 16  1  0  0  0  0
 12 17  2  0  0  0  0
 15 21  1  0  0  0  0
 18 21  2  0  0  0  0
 19 21  2  0  0  0  0
  1 22  1  0  0  0  0
  2 23  1  0  0  0  0
  3 24  1  0  0  0  0
  4 25  1  0  0  0  0
  5 26  1  0  0  0  0
  6 27  1  0  0  0  0
 13 28  1  0  0  0  0
 13 29  1  0  0  0  0
 13 30  1  0  0  0  0
M  CHG  2  15  -1  16  -1
M  END
> <Hybrid2>
-3.534616708755493

> <Hybrid2>
-3.303457

$$$$
C49465888
  -OEChem-02152218493D

 37 39  0     0  0  0  0  0  0999 V2000
    6.4030  -27.9735   -8.8183 C   0  0  0  0  0  0  0  0  0  0  0  0
    7.4728  -30.0465   -9.4473 C   0  0  0  0  0  0  0  0  0  0  0  0
    5.3200  -28.6878   -8.3061 C   0  0  0  0  0  0  0  0  0  0  0  0
    6.3897  -30.7608   -8.9350 C   0  0  0  0  0  0  0  0  0  0  0  0
    7.4794  -28.6529   -9.3890 C   0  0  0  0  0  0  0  0  0  0  0  0
    5.3133  -30.0814   -8.3644 C   0  0  0  0  0  0  0  0  0  0  0  0
    8.5938  -27.9176   -9.9152 C   0  0  0  0  0  0  0  0  0  0  0  0
    9.7892  -26.2751  -10.4383 C   0  0  0  0  0  0  0  0  0  0  0  0
   12.2858  -26.2577  -11.6818 C   0  0  0  0  0  0  0  0  0  0  0  0
   11.7113  -27.4655  -11.4493 C   0  0  0  0  0  0  0  0  0  0  0  0
   11.5092  -25.0411  -11.2404 C   0  0  0  0  0  0  0  0  0  0  0  0
   14.8326  -27.8055  -10.7707 C   0  0  0  0  0  0  0  0  0  0  0  0
    4.1555  -30.8442   -7.8152 C   0  0  0  0  0  0  0  0  0  0  0  0
   12.1091  -23.6729  -11.4809 C   0  0  0  0  0  0  0  0  0  0  0  0
   13.6278  -26.1149  -12.3458 C   0  0  0  0  0  0  0  0  0  0  0  0
   14.7787  -26.4055  -11.3949 C   0  0  0  0  0  0  0  0  0  0  0  0
    8.6341  -26.5648   -9.8746 N   0  0  0  0  0  0  0  0  0  0  0  0
    9.6457  -28.5119  -10.4665 N   0  0  0  0  0  0  0  0  0  0  0  0
   10.3472  -25.0593  -10.6623 N   0  0  0  0  0  0  0  0  0  0  0  0
   10.4410  -27.4549  -10.8159 N   0  0  0  0  0  0  0  0  0  0  0  0
   12.1410  -28.6246  -11.7154 O   0  5  0  0  0  0  0  0  0  0  0  0
   14.9361  -28.7434  -11.6133 O   0  5  0  0  0  0  0  0  0  0  0  0
   14.7595  -27.8653   -9.5128 O   0  0  0  0  0  0  0  0  0  0  0  0
    6.3925  -26.8874   -8.7657 H   0  0  0  0  0  0  0  0  0  0  0  0
    8.3044  -30.5906   -9.8889 H   0  0  0  0  0  0  0  0  0  0  0  0
    4.4858  -28.1509   -7.8624 H   0  0  0  0  0  0  0  0  0  0  0  0
    6.3922  -31.8465   -8.9842 H   0  0  0  0  0  0  0  0  0  0  0  0
    3.3969  -30.9990   -8.5922 H   0  0  0  0  0  0  0  0  0  0  0  0
    4.4688  -31.8251   -7.4346 H   0  0  0  0  0  0  0  0  0  0  0  0
    3.6898  -30.3119   -6.9755 H   0  0  0  0  0  0  0  0  0  0  0  0
   11.7894  -23.3168  -12.4528 H   0  0  0  0  0  0  0  0  0  0  0  0
   13.1892  -23.7533  -11.4478 H   0  0  0  0  0  0  0  0  0  0  0  0
   11.7673  -22.9995  -10.7038 H   0  0  0  0  0  0  0  0  0  0  0  0
   13.6598  -26.7805  -13.2110 H   0  0  0  0  0  0  0  0  0  0  0  0
   13.7069  -25.0899  -12.7153 H   0  0  0  0  0  0  0  0  0  0  0  0
   15.7162  -26.2804  -11.9520 H   0  0  0  0  0  0  0  0  0  0  0  0
   14.7917  -25.6646  -10.5851 H   0  0  0  0  0  0  0  0  0  0  0  0
  1  3  2  0  0  0  0
  1  5  1  0  0  0  0
  2  4  1  0  0  0  0
  2  5  2  0  0  0  0
  3  6  1  0  0  0  0
  4  6  2  0  0  0  0
  5  7  1  0  0  0  0
  6 13  1  0  0  0  0
  7 17  1  0  0  0  0
  7 18  2  0  0  0  0
  8 17  2  0  0  0  0
  8 19  1  0  0  0  0
  8 20  1  0  0  0  0
  9 10  2  0  0  0  0
  9 11  1  0  0  0  0
  9 15  1  0  0  0  0
 10 20  1  0  0  0  0
 10 21  1  0  0  0  0
 11 14  1  0  0  0  0
 11 19  2  0  0  0  0
 12 16  1  0  0  0  0
 12 22  1  0  0  0  0
 12 23  2  0  0  0  0
 15 16  1  0  0  0  0
 18 20  1  0  0  0  0
  1 24  1  0  0  0  0
  2 25  1  0  0  0  0
  3 26  1  0  0  0  0
  4 27  1  0  0  0  0
 13 28  1  0  0  0  0
 13 29  1  0  0  0  0
 13 30  1  0  0  0  0
 14 31  1  0  0  0  0
 14 32  1  0  0  0  0
 14 33  1  0  0  0  0
 15 34  1  0  0  0  0
 15 35  1  0  0  0  0
 16 36  1  0  0  0  0
 16 37  1  0  0  0  0
M  CHG  2  21  -1  22  -1
M  END
> <Hybrid2>
-4.288790702819824

> <Hybrid2>
-4.288791

$$$$
C49465888
  -OEChem-02152218493D

 37 39  0     0  0  0  0  0  0999 V2000
   12.5522  -26.3959  -11.0147 C   0  0  0  0  0  0  0  0  0  0  0  0
   12.3772  -28.5111   -9.8604 C   0  0  0  0  0  0  0  0  0  0  0  0
   13.9205  -26.6036  -11.1880 C   0  0  0  0  0  0  0  0  0  0  0  0
   13.7456  -28.7189  -10.0338 C   0  0  0  0  0  0  0  0  0  0  0  0
   11.7805  -27.3496  -10.3508 C   0  0  0  0  0  0  0  0  0  0  0  0
   14.5172  -27.7651  -10.6976 C   0  0  0  0  0  0  0  0  0  0  0  0
   10.3726  -27.1357  -10.1734 C   0  0  0  0  0  0  0  0  0  0  0  0
    8.5016  -26.1942  -10.2885 C   0  0  0  0  0  0  0  0  0  0  0  0
    6.0392  -27.0782   -9.3215 C   0  0  0  0  0  0  0  0  0  0  0  0
    7.1155  -27.8800   -9.1177 C   0  0  0  0  0  0  0  0  0  0  0  0
    6.2878  -25.7828  -10.0551 C   0  0  0  0  0  0  0  0  0  0  0  0
    2.5680  -28.9068   -9.3696 C   0  0  0  0  0  0  0  0  0  0  0  0
   15.9800  -27.9869  -10.8846 C   0  0  0  0  0  0  0  0  0  0  0  0
    5.1181  -24.8555  -10.3033 C   0  0  0  0  0  0  0  0  0  0  0  0
    4.6588  -27.4414   -8.8474 C   0  0  0  0  0  0  0  0  0  0  0  0
    3.9859  -28.4631   -9.7512 C   0  0  0  0  0  0  0  0  0  0  0  0
    9.7603  -26.0206  -10.6370 N   0  0  0  0  0  0  0  0  0  0  0  0
    9.5897  -28.0104   -9.5524 N   0  0  0  0  0  0  0  0  0  0  0  0
    7.4381  -25.3797  -10.5014 N   0  0  0  0  0  0  0  0  0  0  0  0
    8.3601  -27.4140   -9.6165 N   0  0  0  0  0  0  0  0  0  0  0  0
    7.1837  -29.0025   -8.5395 O   0  5  0  0  0  0  0  0  0  0  0  0
    2.0672  -29.7655  -10.1519 O   0  5  0  0  0  0  0  0  0  0  0  0
    2.0658  -28.3699   -8.3446 O   0  0  0  0  0  0  0  0  0  0  0  0
   12.1024  -25.4848  -11.4023 H   0  0  0  0  0  0  0  0  0  0  0  0
   11.7892  -29.2640   -9.3408 H   0  0  0  0  0  0  0  0  0  0  0  0
   14.5143  -25.8560  -11.7071 H   0  0  0  0  0  0  0  0  0  0  0  0
   14.2028  -29.6265   -9.6488 H   0  0  0  0  0  0  0  0  0  0  0  0
   16.5407  -27.5707  -10.0387 H   0  0  0  0  0  0  0  0  0  0  0  0
   16.2140  -29.0564  -10.9646 H   0  0  0  0  0  0  0  0  0  0  0  0
   16.3401  -27.5133  -11.8074 H   0  0  0  0  0  0  0  0  0  0  0  0
    5.0311  -24.1710   -9.4682 H   0  0  0  0  0  0  0  0  0  0  0  0
    4.2156  -25.4478  -10.3981 H   0  0  0  0  0  0  0  0  0  0  0  0
    5.2951  -24.3070  -11.2209 H   0  0  0  0  0  0  0  0  0  0  0  0
    4.7301  -27.8143   -7.8235 H   0  0  0  0  0  0  0  0  0  0  0  0
    4.0649  -26.5248   -8.8239 H   0  0  0  0  0  0  0  0  0  0  0  0
    3.9124  -28.0277  -10.7561 H   0  0  0  0  0  0  0  0  0  0  0  0
    4.6163  -29.3573   -9.8402 H   0  0  0  0  0  0  0  0  0  0  0  0
  1  3  2  0  0  0  0
  1  5  1  0  0  0  0
  2  4  1  0  0  0  0
  2  5  2  0  0  0  0
  3  6  1  0  0  0  0
  4  6  2  0  0  0  0
  5  7  1  0  0  0  0
  6 13  1  0  0  0  0
  7 17  1  0  0  0  0
  7 18  2  0  0  0  0
  8 17  2  0  0  0  0
  8 19  1  0  0  0  0
  8 20  1  0  0  0  0
  9 10  2  0  0  0  0
  9 11  1  0  0  0  0
  9 15  1  0  0  0  0
 10 20  1  0  0  0  0
 10 21  1  0  0  0  0
 11 14  1  0  0  0  0
 11 19  2  0  0  0  0
 12 16  1  0  0  0  0
 12 22  1  0  0  0  0
 12 23  2  0  0  0  0
 15 16  1  0  0  0  0
 18 20  1  0  0  0  0
  1 24  1  0  0  0  0
  2 25  1  0  0  0  0
  3 26  1  0  0  0  0
  4 27  1  0  0  0  0
 13 28  1  0  0  0  0
 13 29  1  0  0  0  0
 13 30  1  0  0  0  0
 14 31  1  0  0  0  0
 14 32  1  0  0  0  0
 14 33  1  0  0  0  0
 15 34  1  0  0  0  0
 15 35  1  0  0  0  0
 16 36  1  0  0  0  0
 16 37  1  0  0  0  0
M  CHG  2  21  -1  22  -1
M  END
> <Hybrid2>
-4.288790702819824

> <Hybrid2>
-2.177547

$$$$
C49542458
  -OEChem-02152218493D

 22 24  0     0  0  0  0  0  0999 V2000
    6.6590  -30.2719   -8.4534 C   0  0  0  0  0  0  0  0  0  0  0  0
    5.4723  -29.7419   -7.9507 C   0  0  0  0  0  0  0  0  0  0  0  0
    7.6929  -29.4323   -8.8835 C   0  0  0  0  0  0  0  0  0  0  0  0
    5.2808  -28.3602   -7.8616 C   0  0  0  0  0  0  0  0  0  0  0  0
    7.5227  -28.0358   -8.8033 C   0  0  0  0  0  0  0  0  0  0  0  0
    8.3356  -26.9171   -9.1388 C   0  0  0  0  0  0  0  0  0  0  0  0
    6.3229  -27.5330   -8.2952 C   0  0  0  0  0  0  0  0  0  0  0  0
    7.6268  -25.7780   -8.8338 C   0  0  0  0  0  0  0  0  0  0  0  0
    9.6615  -26.9435   -9.6974 C   0  0  0  0  0  0  0  0  0  0  0  0
   10.1746  -26.3840  -10.9843 C   0  0  0  0  0  0  0  0  0  0  0  0
   11.7318  -27.3521   -9.9009 C   0  0  0  0  0  0  0  0  0  0  0  0
   10.6385  -27.5016   -9.0599 N   0  0  0  0  0  0  0  0  0  0  0  0
   11.4372  -26.6690  -11.0728 N   0  0  0  0  0  0  0  0  0  0  0  0
    6.4142  -26.1597   -8.3254 N   0  0  0  0  0  0  0  0  0  0  0  0
    7.8207  -24.5781   -8.9089 O   0  5  0  0  0  0  0  0  0  0  0  0
    9.3144  -25.8043  -11.6549 O   0  5  0  0  0  0  0  0  0  0  0  0
   13.2687  -27.9409   -9.5344 S   0  0  0  0  0  0  0  0  0  0  0  0
    6.7857  -31.3495   -8.5118 H   0  0  0  0  0  0  0  0  0  0  0  0
    4.6828  -30.4128   -7.6211 H   0  0  0  0  0  0  0  0  0  0  0  0
    8.6128  -29.8608   -9.2714 H   0  0  0  0  0  0  0  0  0  0  0  0
    4.3569  -27.9487   -7.4692 H   0  0  0  0  0  0  0  0  0  0  0  0
    5.6903  -25.5257   -8.0166 H   0  0  0  0  0  0  0  0  0  0  0  0
  1  2  1  0  0  0  0
  1  3  2  0  0  0  0
  2  4  2  0  0  0  0
  3  5  1  0  0  0  0
  4  7  1  0  0  0  0
  5  6  1  0  0  0  0
  5  7  2  0  0  0  0
  6  8  2  0  0  0  0
  6  9  1  0  0  0  0
  7 14  1  0  0  0  0
  8 14  1  0  0  0  0
  8 15  1  0  0  0  0
  9 10  1  0  0  0  0
  9 12  2  0  0  0  0
 10 13  2  0  0  0  0
 10 16  1  0  0  0  0
 11 12  1  0  0  0  0
 11 13  1  0  0  0  0
 11 17  2  0  0  0  0
  1 18  1  0  0  0  0
  2 19  1  0  0  0  0
  3 20  1  0  0  0  0
  4 21  1  0  0  0  0
 14 22  1  0  0  0  0
M  CHG  2  15  -1  16  -1
M  END
> <Hybrid2>
-5.824736595153809

> <Hybrid2>
-5.824737

$$$$
C49542458
  -OEChem-02152218493D

 22 24  0     0  0  0  0  0  0999 V2000
   11.0191  -26.9976  -14.0177 C   0  0  0  0  0  0  0  0  0  0  0  0
   12.3318  -26.5477  -13.8912 C   0  0  0  0  0  0  0  0  0  0  0  0
   10.2569  -27.3104  -12.8862 C   0  0  0  0  0  0  0  0  0  0  0  0
   12.9238  -26.3961  -12.6340 C   0  0  0  0  0  0  0  0  0  0  0  0
   10.8324  -27.1655  -11.6083 C   0  0  0  0  0  0  0  0  0  0  0  0
   10.3676  -27.3836  -10.2811 C   0  0  0  0  0  0  0  0  0  0  0  0
   12.1500  -26.7127  -11.5118 C   0  0  0  0  0  0  0  0  0  0  0  0
   11.3930  -27.0652   -9.4207 C   0  0  0  0  0  0  0  0  0  0  0  0
    9.0667  -27.8523   -9.8826 C   0  0  0  0  0  0  0  0  0  0  0  0
    7.7156  -27.2623  -10.1250 C   0  0  0  0  0  0  0  0  0  0  0  0
    7.5680  -29.0657   -9.0016 C   0  0  0  0  0  0  0  0  0  0  0  0
    8.9337  -28.9546   -9.2193 N   0  0  0  0  0  0  0  0  0  0  0  0
    6.8342  -28.0271   -9.5582 N   0  0  0  0  0  0  0  0  0  0  0  0
   12.4636  -26.6613  -10.1724 N   0  0  0  0  0  0  0  0  0  0  0  0
   11.5556  -27.0613   -8.2138 O   0  5  0  0  0  0  0  0  0  0  0  0
    7.7384  -26.2145  -10.7785 O   0  5  0  0  0  0  0  0  0  0  0  0
    6.8678  -30.3389   -8.1462 S   0  0  0  0  0  0  0  0  0  0  0  0
   10.5796  -27.1062  -15.0055 H   0  0  0  0  0  0  0  0  0  0  0  0
   12.9052  -26.3092  -14.7836 H   0  0  0  0  0  0  0  0  0  0  0  0
    9.2342  -27.6583  -13.0014 H   0  0  0  0  0  0  0  0  0  0  0  0
   13.9457  -26.0450  -12.5366 H   0  0  0  0  0  0  0  0  0  0  0  0
   13.3556  -26.3678   -9.7987 H   0  0  0  0  0  0  0  0  0  0  0  0
  1  2  1  0  0  0  0
  1  3  2  0  0  0  0
  2  4  2  0  0  0  0
  3  5  1  0  0  0  0
  4  7  1  0  0  0  0
  5  6  1  0  0  0  0
  5  7  2  0  0  0  0
  6  8  2  0  0  0  0
  6  9  1  0  0  0  0
  7 14  1  0  0  0  0
  8 14  1  0  0  0  0
  8 15  1  0  0  0  0
  9 10  1  0  0  0  0
  9 12  2  0  0  0  0
 10 13  2  0  0  0  0
 10 16  1  0  0  0  0
 11 12  1  0  0  0  0
 11 13  1  0  0  0  0
 11 17  2  0  0  0  0
  1 18  1  0  0  0  0
  2 19  1  0  0  0  0
  3 20  1  0  0  0  0
  4 21  1  0  0  0  0
 14 22  1  0  0  0  0
M  CHG  2  15  -1  16  -1
M  END
> <Hybrid2>
-5.824736595153809

> <Hybrid2>
-5.313902

$$$$
C51361130
  -OEChem-02152218493D

 29 30  0     0  0  0  0  0  0999 V2000
    7.9404  -27.2888   -9.2470 C   0  0  0  0  0  0  0  0  0  0  0  0
   14.7950  -25.6801  -11.9385 C   0  0  0  0  0  0  0  0  0  0  0  0
    8.6839  -26.1182   -9.5299 C   0  0  0  0  0  0  0  0  0  0  0  0
    6.6705  -26.8671   -8.9285 C   0  0  0  0  0  0  0  0  0  0  0  0
   14.0945  -26.7864  -11.5029 C   0  0  0  0  0  0  0  0  0  0  0  0
    7.8152  -25.0646   -9.3642 C   0  0  0  0  0  0  0  0  0  0  0  0
   14.0276  -24.5899  -12.2947 C   0  0  0  0  0  0  0  0  0  0  0  0
   12.1139  -25.7094  -11.7932 C   0  0  0  0  0  0  0  0  0  0  0  0
    5.5080  -27.7867   -8.5482 C   0  0  0  0  0  0  0  0  0  0  0  0
   14.8374  -28.0144  -11.0957 C   0  0  0  0  0  0  0  0  0  0  0  0
    7.9565  -23.6075   -9.5041 C   0  0  0  0  0  0  0  0  0  0  0  0
   10.1317  -26.0449   -9.9301 C   0  0  0  0  0  0  0  0  0  0  0  0
   12.7490  -26.8359  -11.4174 N   0  0  0  0  0  0  0  0  0  0  0  0
   12.6799  -24.5698  -12.2344 N   0  0  0  0  0  0  0  0  0  0  0  0
   14.5642  -23.5083  -12.7131 O   0  5  0  0  0  0  0  0  0  0  0  0
    4.4103  -27.2247   -8.2860 O   0  5  0  0  0  0  0  0  0  0  0  0
    5.7529  -29.0234   -8.5311 O   0  0  0  0  0  0  0  0  0  0  0  0
    6.5858  -25.5127   -8.9977 O   0  0  0  0  0  0  0  0  0  0  0  0
   10.3352  -25.7287  -11.6968 S   0  0  0  0  0  0  0  0  0  0  0  0
    8.2889  -28.3120   -9.2732 H   0  0  0  0  0  0  0  0  0  0  0  0
   15.8786  -25.6826  -11.9919 H   0  0  0  0  0  0  0  0  0  0  0  0
   15.0758  -27.9789  -10.0258 H   0  0  0  0  0  0  0  0  0  0  0  0
   14.2480  -28.9194  -11.2913 H   0  0  0  0  0  0  0  0  0  0  0  0
   15.7744  -28.1176  -11.6582 H   0  0  0  0  0  0  0  0  0  0  0  0
    7.7234  -23.2771  -10.5317 H   0  0  0  0  0  0  0  0  0  0  0  0
    7.2883  -23.0538   -8.8193 H   0  0  0  0  0  0  0  0  0  0  0  0
    8.9799  -23.2611   -9.2697 H   0  0  0  0  0  0  0  0  0  0  0  0
   10.6411  -25.2543   -9.3680 H   0  0  0  0  0  0  0  0  0  0  0  0
   10.6395  -26.9829   -9.6796 H   0  0  0  0  0  0  0  0  0  0  0  0
  1  3  1  0  0  0  0
  1  4  2  0  0  0  0
  2  5  1  0  0  0  0
  2  7  2  0  0  0  0
  3  6  2  0  0  0  0
  3 12  1  0  0  0  0
  4  9  1  0  0  0  0
  4 18  1  0  0  0  0
  5 10  1  0  0  0  0
  5 13  2  0  0  0  0
  6 11  1  0  0  0  0
  6 18  1  0  0  0  0
  7 14  1  0  0  0  0
  7 15  1  0  0  0  0
  8 13  1  0  0  0  0
  8 14  2  0  0  0  0
  8 19  1  0  0  0  0
  9 16  1  0  0  0  0
  9 17  2  0  0  0  0
 12 19  1  0  0  0  0
  1 20  1  0  0  0  0
  2 21  1  0  0  0  0
 10 22  1  0  0  0  0
 10 23  1  0  0  0  0
 10 24  1  0  0  0  0
 11 25  1  0  0  0  0
 11 26  1  0  0  0  0
 11 27  1  0  0  0  0
 12 28  1  0  0  0  0
 12 29  1  0  0  0  0
M  CHG  2  15  -1  16  -1
M  END
> <Hybrid2>
-3.6007637977600098

> <Hybrid2>
-3.600764

$$$$
C51361130
  -OEChem-02152218493D

 29 30  0     0  0  0  0  0  0999 V2000
    7.0017  -25.9178  -10.1115 C   0  0  0  0  0  0  0  0  0  0  0  0
   14.2003  -25.9894  -12.3456 C   0  0  0  0  0  0  0  0  0  0  0  0
    8.0357  -26.8789  -10.2135 C   0  0  0  0  0  0  0  0  0  0  0  0
    5.9644  -26.5408   -9.4574 C   0  0  0  0  0  0  0  0  0  0  0  0
   14.1238  -27.0095  -11.4193 C   0  0  0  0  0  0  0  0  0  0  0  0
    7.5567  -28.0205   -9.6141 C   0  0  0  0  0  0  0  0  0  0  0  0
   13.1223  -25.1285  -12.3758 C   0  0  0  0  0  0  0  0  0  0  0  0
   12.0917  -26.2798  -10.7087 C   0  0  0  0  0  0  0  0  0  0  0  0
    4.6218  -25.8900   -9.1175 C   0  0  0  0  0  0  0  0  0  0  0  0
   15.2419  -27.9913  -11.3118 C   0  0  0  0  0  0  0  0  0  0  0  0
    8.1262  -29.3571   -9.3870 C   0  0  0  0  0  0  0  0  0  0  0  0
    9.3848  -26.6869  -10.8498 C   0  0  0  0  0  0  0  0  0  0  0  0
   13.0806  -27.1850  -10.5820 N   0  0  0  0  0  0  0  0  0  0  0  0
   12.0472  -25.2446  -11.5689 N   0  0  0  0  0  0  0  0  0  0  0  0
   13.0798  -24.1460  -13.1917 O   0  5  0  0  0  0  0  0  0  0  0  0
    3.7844  -26.6133   -8.5131 O   0  5  0  0  0  0  0  0  0  0  0  0
    4.4740  -24.6893   -9.4727 O   0  0  0  0  0  0  0  0  0  0  0  0
    6.2947  -27.8227   -9.1506 O   0  0  0  0  0  0  0  0  0  0  0  0
   10.6928  -26.4722   -9.6227 S   0  0  0  0  0  0  0  0  0  0  0  0
    7.0134  -24.8981  -10.4707 H   0  0  0  0  0  0  0  0  0  0  0  0
   15.0588  -25.8844  -13.0007 H   0  0  0  0  0  0  0  0  0  0  0  0
   15.9870  -27.6430  -10.5864 H   0  0  0  0  0  0  0  0  0  0  0  0
   14.8776  -28.9758  -10.9915 H   0  0  0  0  0  0  0  0  0  0  0  0
   15.7391  -28.1358  -12.2797 H   0  0  0  0  0  0  0  0  0  0  0  0
    8.6612  -29.4084   -8.4223 H   0  0  0  0  0  0  0  0  0  0  0  0
    7.3525  -30.1466   -9.3782 H   0  0  0  0  0  0  0  0  0  0  0  0
    8.8421  -29.6477  -10.1778 H   0  0  0  0  0  0  0  0  0  0  0  0
    9.6312  -27.5463  -11.4831 H   0  0  0  0  0  0  0  0  0  0  0  0
    9.3702  -25.8095  -11.5059 H   0  0  0  0  0  0  0  0  0  0  0  0
  1  3  1  0  0  0  0
  1  4  2  0  0  0  0
  2  5  1  0  0  0  0
  2  7  2  0  0  0  0
  3  6  2  0  0  0  0
  3 12  1  0  0  0  0
  4  9  1  0  0  0  0
  4 18  1  0  0  0  0
  5 10  1  0  0  0  0
  5 13  2  0  0  0  0
  6 11  1  0  0  0  0
  6 18  1  0  0  0  0
  7 14  1  0  0  0  0
  7 15  1  0  0  0  0
  8 13  1  0  0  0  0
  8 14  2  0  0  0  0
  8 19  1  0  0  0  0
  9 16  1  0  0  0  0
  9 17  2  0  0  0  0
 12 19  1  0  0  0  0
  1 20  1  0  0  0  0
  2 21  1  0  0  0  0
 10 22  1  0  0  0  0
 10 23  1  0  0  0  0
 10 24  1  0  0  0  0
 11 25  1  0  0  0  0
 11 26  1  0  0  0  0
 11 27  1  0  0  0  0
 12 28  1  0  0  0  0
 12 29  1  0  0  0  0
M  CHG  2  15  -1  16  -1
M  END
> <Hybrid2>
-3.6007637977600098

> <Hybrid2>
-2.843878

$$$$
C16161077
  -OEChem-02152218493D

 26 27  0     0  0  0  0  0  0999 V2000
    8.1514  -29.0542   -9.7527 C   0  0  0  0  0  0  0  0  0  0  0  0
    7.1116  -27.1025   -8.7798 C   0  0  0  0  0  0  0  0  0  0  0  0
    9.2818  -28.2979  -10.0618 C   0  0  0  0  0  0  0  0  0  0  0  0
    8.2421  -26.3461   -9.0888 C   0  0  0  0  0  0  0  0  0  0  0  0
    7.0662  -28.4565   -9.1117 C   0  0  0  0  0  0  0  0  0  0  0  0
    9.3272  -26.9438   -9.7299 C   0  0  0  0  0  0  0  0  0  0  0  0
   12.2516  -26.6537  -11.2393 C   0  0  0  0  0  0  0  0  0  0  0  0
   13.5800  -27.1824  -11.5901 C   0  0  0  0  0  0  0  0  0  0  0  0
   11.7776  -26.0236  -12.4832 C   0  0  0  0  0  0  0  0  0  0  0  0
    5.8734  -29.2546   -8.7857 C   0  0  0  0  0  0  0  0  0  0  0  0
   14.4392  -27.9074  -10.6282 C   0  0  0  0  0  0  0  0  0  0  0  0
   13.8288  -26.9027  -12.8316 N   0  0  0  0  0  0  0  0  0  0  0  0
   12.6981  -26.1760  -13.3901 N   0  0  0  0  0  0  0  0  0  0  0  0
   11.6852  -26.7522  -10.0858 N   0  0  0  0  0  0  0  0  0  0  0  0
   10.4702  -26.1791  -10.0424 N   0  0  0  0  0  0  0  0  0  0  0  0
   10.6577  -25.5122  -12.3907 O   0  5  0  0  0  0  0  0  0  0  0  0
    4.8852  -28.6787   -8.1934 O   0  5  0  0  0  0  0  0  0  0  0  0
    5.8568  -30.5027   -9.1029 O   0  0  0  0  0  0  0  0  0  0  0  0
    8.1263  -30.1086  -10.0156 H   0  0  0  0  0  0  0  0  0  0  0  0
    6.2714  -26.6271   -8.2803 H   0  0  0  0  0  0  0  0  0  0  0  0
   10.1219  -28.7736  -10.5614 H   0  0  0  0  0  0  0  0  0  0  0  0
    8.2668  -25.2917   -8.8257 H   0  0  0  0  0  0  0  0  0  0  0  0
   14.2334  -28.9819  -10.6647 H   0  0  0  0  0  0  0  0  0  0  0  0
   14.2580  -27.5524   -9.6084 H   0  0  0  0  0  0  0  0  0  0  0  0
   15.4967  -27.7469  -10.8620 H   0  0  0  0  0  0  0  0  0  0  0  0
   10.3429  -25.1943  -10.2322 H   0  0  0  0  0  0  0  0  0  0  0  0
  1  3  2  0  0  0  0
  1  5  1  0  0  0  0
  2  4  1  0  0  0  0
  2  5  2  0  0  0  0
  3  6  1  0  0  0  0
  4  6  2  0  0  0  0
  5 10  1  0  0  0  0
  6 15  1  0  0  0  0
  7  8  1  0  0  0  0
  7  9  1  0  0  0  0
  7 14  2  0  0  0  0
  8 11  1  0  0  0  0
  8 12  2  0  0  0  0
  9 13  2  0  0  0  0
  9 16  1  0  0  0  0
 10 17  1  0  0  0  0
 10 18  2  0  0  0  0
 12 13  1  0  0  0  0
 14 15  1  0  0  0  0
  1 19  1  0  0  0  0
  2 20  1  0  0  0  0
  3 21  1  0  0  0  0
  4 22  1  0  0  0  0
 11 23  1  0  0  0  0
 11 24  1  0  0  0  0
 11 25  1  0  0  0  0
 15 26  1  0  0  0  0
M  CHG  2  16  -1  17  -1
M  END
> <Hybrid2>
-3.8814542293548584

> <Hybrid2>
-3.881454

$$$$
C16161077
  -OEChem-02152218493D

 26 27  0     0  0  0  0  0  0999 V2000
    7.9098  -29.0750   -9.4012 C   0  0  0  0  0  0  0  0  0  0  0  0
    6.6369  -27.0473   -9.0775 C   0  0  0  0  0  0  0  0  0  0  0  0
    8.9931  -28.3226   -9.8550 C   0  0  0  0  0  0  0  0  0  0  0  0
    7.7202  -26.2948   -9.5312 C   0  0  0  0  0  0  0  0  0  0  0  0
    6.7317  -28.4374   -9.0125 C   0  0  0  0  0  0  0  0  0  0  0  0
    8.8983  -26.9325   -9.9200 C   0  0  0  0  0  0  0  0  0  0  0  0
   11.8961  -26.7749  -11.2996 C   0  0  0  0  0  0  0  0  0  0  0  0
   13.2875  -27.2410  -11.4177 C   0  0  0  0  0  0  0  0  0  0  0  0
   11.4686  -26.5681  -12.6936 C   0  0  0  0  0  0  0  0  0  0  0  0
    5.5887  -29.2313   -8.5337 C   0  0  0  0  0  0  0  0  0  0  0  0
   14.1275  -27.5774  -10.2471 C   0  0  0  0  0  0  0  0  0  0  0  0
   13.6074  -27.2938  -12.6732 N   0  0  0  0  0  0  0  0  0  0  0  0
   12.4662  -26.8714  -13.4718 N   0  0  0  0  0  0  0  0  0  0  0  0
   11.2521  -26.6062  -10.1959 N   0  0  0  0  0  0  0  0  0  0  0  0
    9.9936  -26.1716  -10.3788 N   0  0  0  0  0  0  0  0  0  0  0  0
   10.3058  -26.1690  -12.8072 O   0  5  0  0  0  0  0  0  0  0  0  0
    4.5125  -28.6181   -8.1805 O   0  5  0  0  0  0  0  0  0  0  0  0
    5.7021  -30.5133   -8.4833 O   0  0  0  0  0  0  0  0  0  0  0  0
    7.9941  -30.1577   -9.3543 H   0  0  0  0  0  0  0  0  0  0  0  0
    5.7234  -26.5406   -8.7770 H   0  0  0  0  0  0  0  0  0  0  0  0
    9.9065  -28.8296  -10.1554 H   0  0  0  0  0  0  0  0  0  0  0  0
    7.6355  -25.2121   -9.5780 H   0  0  0  0  0  0  0  0  0  0  0  0
   14.0165  -28.6348   -9.9869 H   0  0  0  0  0  0  0  0  0  0  0  0
   13.8385  -26.9732   -9.3809 H   0  0  0  0  0  0  0  0  0  0  0  0
   15.1827  -27.3805  -10.4630 H   0  0  0  0  0  0  0  0  0  0  0  0
    9.7988  -25.2971  -10.8471 H   0  0  0  0  0  0  0  0  0  0  0  0
  1  3  2  0  0  0  0
  1  5  1  0  0  0  0
  2  4  1  0  0  0  0
  2  5  2  0  0  0  0
  3  6  1  0  0  0  0
  4  6  2  0  0  0  0
  5 10  1  0  0  0  0
  6 15  1  0  0  0  0
  7  8  1  0  0  0  0
  7  9  1  0  0  0  0
  7 14  2  0  0  0  0
  8 11  1  0  0  0  0
  8 12  2  0  0  0  0
  9 13  2  0  0  0  0
  9 16  1  0  0  0  0
 10 17  1  0  0  0  0
 10 18  2  0  0  0  0
 12 13  1  0  0  0  0
 14 15  1  0  0  0  0
  1 19  1  0  0  0  0
  2 20  1  0  0  0  0
  3 21  1  0  0  0  0
  4 22  1  0  0  0  0
 11 23  1  0  0  0  0
 11 24  1  0  0  0  0
 11 25  1  0  0  0  0
 15 26  1  0  0  0  0
M  CHG  2  16  -1  17  -1
M  END
> <Hybrid2>
-3.8814542293548584

> <Hybrid2>
-3.757698

$$$$
C16694098
  -OEChem-02152218493D

 33 34  0     0  0  0  0  0  0999 V2000
    4.1223  -30.1612   -7.9077 C   0  0  0  0  0  0  0  0  0  0  0  0
   10.2476  -26.5752  -11.6747 C   0  0  0  0  0  0  0  0  0  0  0  0
   10.9232  -26.9654   -9.3881 C   0  0  0  0  0  0  0  0  0  0  0  0
   11.5771  -26.6744  -12.0845 C   0  0  0  0  0  0  0  0  0  0  0  0
   12.2528  -27.0647   -9.7980 C   0  0  0  0  0  0  0  0  0  0  0  0
    4.6494  -28.9706   -8.5159 C   0  0  0  0  0  0  0  0  0  0  0  0
    6.4920  -27.7722   -9.4922 C   0  0  0  0  0  0  0  0  0  0  0  0
    5.9839  -28.9250   -8.9036 C   0  0  0  0  0  0  0  0  0  0  0  0
    9.9206  -26.7206  -10.3265 C   0  0  0  0  0  0  0  0  0  0  0  0
   12.5797  -26.9192  -11.1462 C   0  0  0  0  0  0  0  0  0  0  0  0
    3.8710  -27.8459   -8.7368 C   0  0  0  0  0  0  0  0  0  0  0  0
    5.6311  -26.7012   -9.6696 C   0  0  0  0  0  0  0  0  0  0  0  0
    7.9055  -27.7226   -9.9028 C   0  0  0  0  0  0  0  0  0  0  0  0
    6.8788  -30.1085   -8.6921 C   0  0  0  0  0  0  0  0  0  0  0  0
    3.6967  -31.1227   -7.4166 N   0  0  0  0  0  0  0  0  0  0  0  0
    4.3291  -26.7083   -9.3057 N   0  0  0  0  0  0  0  0  0  0  0  0
    8.5878  -26.6186   -9.9149 N   0  0  0  0  0  0  0  0  0  0  0  0
   14.7465  -25.4150  -11.5302 N   0  0  0  0  0  0  0  0  0  0  0  0
    2.6323  -27.7889   -8.4151 O   0  5  0  0  0  0  0  0  0  0  0  0
    6.0103  -25.6008  -10.2025 O   0  5  0  0  0  0  0  0  0  0  0  0
   14.9694  -27.8380  -10.6789 O   0  0  0  0  0  0  0  0  0  0  0  0
   14.2673  -27.4288  -13.0637 O   0  0  0  0  0  0  0  0  0  0  0  0
   14.2437  -27.0429  -11.6596 S   0  0  0  0  0  0  0  0  0  0  0  0
    9.4733  -26.3832  -12.4130 H   0  0  0  0  0  0  0  0  0  0  0  0
   10.6778  -27.0794   -8.3354 H   0  0  0  0  0  0  0  0  0  0  0  0
   11.8204  -26.5601  -13.1374 H   0  0  0  0  0  0  0  0  0  0  0  0
   13.0258  -27.2558   -9.0587 H   0  0  0  0  0  0  0  0  0  0  0  0
    8.3684  -28.6807  -10.2065 H   0  0  0  0  0  0  0  0  0  0  0  0
    6.8451  -30.7647   -9.5672 H   0  0  0  0  0  0  0  0  0  0  0  0
    7.9139  -29.7916   -8.5270 H   0  0  0  0  0  0  0  0  0  0  0  0
    6.5704  -30.6792   -7.8097 H   0  0  0  0  0  0  0  0  0  0  0  0
   15.3911  -25.1687  -10.7691 H   0  0  0  0  0  0  0  0  0  0  0  0
   14.9093  -24.8903  -12.3982 H   0  0  0  0  0  0  0  0  0  0  0  0
  1  6  1  0  0  0  0
  1 15  3  0  0  0  0
  2  4  2  0  0  0  0
  2  9  1  0  0  0  0
  3  5  1  0  0  0  0
  3  9  2  0  0  0  0
  4 10  1  0  0  0  0
  5 10  2  0  0  0  0
  6  8  2  0  0  0  0
  6 11  1  0  0  0  0
  7  8  1  0  0  0  0
  7 12  2  0  0  0  0
  7 13  1  0  0  0  0
  8 14  1  0  0  0  0
  9 17  1  0  0  0  0
 10 23  1  0  0  0  0
 11 16  2  0  0  0  0
 11 19  1  0  0  0  0
 12 16  1  0  0  0  0
 12 20  1  0  0  0  0
 13 17  2  0  0  0  0
 18 23  1  0  0  0  0
 21 23  2  0  0  0  0
 22 23  2  0  0  0  0
  2 24  1  0  0  0  0
  3 25  1  0  0  0  0
  4 26  1  0  0  0  0
  5 27  1  0  0  0  0
 13 28  1  0  0  0  0
 14 29  1  0  0  0  0
 14 30  1  0  0  0  0
 14 31  1  0  0  0  0
 18 32  1  0  0  0  0
 18 33  1  0  0  0  0
M  CHG  2  19  -1  20  -1
M  END
> <Hybrid2>
-4.048537254333496

> <Hybrid2>
-4.048537

$$$$
C16694098
  -OEChem-02152218493D

 33 34  0     0  0  0  0  0  0999 V2000
    5.2725  -30.1094   -8.7778 C   0  0  0  0  0  0  0  0  0  0  0  0
   11.8601  -26.4167  -11.5233 C   0  0  0  0  0  0  0  0  0  0  0  0
   12.4254  -27.4464   -9.4121 C   0  0  0  0  0  0  0  0  0  0  0  0
   13.1809  -26.5613  -11.9475 C   0  0  0  0  0  0  0  0  0  0  0  0
   13.7463  -27.5911   -9.8363 C   0  0  0  0  0  0  0  0  0  0  0  0
    5.9456  -28.8726   -9.0649 C   0  0  0  0  0  0  0  0  0  0  0  0
    7.9364  -27.6864   -9.7087 C   0  0  0  0  0  0  0  0  0  0  0  0
    7.2869  -28.8841   -9.4310 C   0  0  0  0  0  0  0  0  0  0  0  0
   11.4823  -26.8592  -10.2555 C   0  0  0  0  0  0  0  0  0  0  0  0
   14.1240  -27.1485  -11.1041 C   0  0  0  0  0  0  0  0  0  0  0  0
    5.3039  -27.6468   -8.9915 C   0  0  0  0  0  0  0  0  0  0  0  0
    7.2055  -26.5137   -9.6066 C   0  0  0  0  0  0  0  0  0  0  0  0
    9.3572  -27.6975  -10.0961 C   0  0  0  0  0  0  0  0  0  0  0  0
    8.0380  -30.1774   -9.5287 C   0  0  0  0  0  0  0  0  0  0  0  0
    4.7290  -31.1082   -8.5461 N   0  0  0  0  0  0  0  0  0  0  0  0
    5.9014  -26.4628   -9.2539 N   0  0  0  0  0  0  0  0  0  0  0  0
   10.1585  -26.7120   -9.8288 N   0  0  0  0  0  0  0  0  0  0  0  0
   16.4548  -25.8553  -11.0980 N   0  0  0  0  0  0  0  0  0  0  0  0
    4.0710  -27.5309   -8.6634 O   0  5  0  0  0  0  0  0  0  0  0  0
    7.7195  -25.3655   -9.8435 O   0  5  0  0  0  0  0  0  0  0  0  0
   16.3826  -28.4238  -10.8902 O   0  0  0  0  0  0  0  0  0  0  0  0
   15.7957  -27.3480  -13.0916 O   0  0  0  0  0  0  0  0  0  0  0  0
   15.7772  -27.3289  -11.6355 S   0  0  0  0  0  0  0  0  0  0  0  0
   11.1325  -25.9570  -12.1871 H   0  0  0  0  0  0  0  0  0  0  0  0
   12.1403  -27.7936   -8.4223 H   0  0  0  0  0  0  0  0  0  0  0  0
   13.4640  -26.2137  -12.9374 H   0  0  0  0  0  0  0  0  0  0  0  0
   14.4727  -28.0501   -9.1714 H   0  0  0  0  0  0  0  0  0  0  0  0
    9.7184  -28.5945  -10.6340 H   0  0  0  0  0  0  0  0  0  0  0  0
    7.9552  -30.5831  -10.5417 H   0  0  0  0  0  0  0  0  0  0  0  0
    9.0972  -30.0335   -9.2906 H   0  0  0  0  0  0  0  0  0  0  0  0
    7.6439  -30.9130   -8.8194 H   0  0  0  0  0  0  0  0  0  0  0  0
   17.1019  -25.8848  -10.3006 H   0  0  0  0  0  0  0  0  0  0  0  0
   16.6986  -25.1508  -11.8047 H   0  0  0  0  0  0  0  0  0  0  0  0
  1  6  1  0  0  0  0
  1 15  3  0  0  0  0
  2  4  2  0  0  0  0
  2  9  1  0  0  0  0
  3  5  1  0  0  0  0
  3  9  2  0  0  0  0
  4 10  1  0  0  0  0
  5 10  2  0  0  0  0
  6  8  2  0  0  0  0
  6 11  1  0  0  0  0
  7  8  1  0  0  0  0
  7 12  2  0  0  0  0
  7 13  1  0  0  0  0
  8 14  1  0  0  0  0
  9 17  1  0  0  0  0
 10 23  1  0  0  0  0
 11 16  2  0  0  0  0
 11 19  1  0  0  0  0
 12 16  1  0  0  0  0
 12 20  1  0  0  0  0
 13 17  2  0  0  0  0
 18 23  1  0  0  0  0
 21 23  2  0  0  0  0
 22 23  2  0  0  0  0
  2 24  1  0  0  0  0
  3 25  1  0  0  0  0
  4 26  1  0  0  0  0
  5 27  1  0  0  0  0
 13 28  1  0  0  0  0
 14 29  1  0  0  0  0
 14 30  1  0  0  0  0
 14 31  1  0  0  0  0
 18 32  1  0  0  0  0
 18 33  1  0  0  0  0
M  CHG  2  19  -1  20  -1
M  END
> <Hybrid2>
-4.048537254333496

> <Hybrid2>
-3.344069

$$$$
C55311221
  -OEChem-02152218493D

 32 33  0     0  0  0  0  0  0999 V2000
    7.7327  -25.6324  -10.2931 C   0  0  0  0  0  0  0  0  0  0  0  0
    9.0289  -27.6468  -10.6079 C   0  0  0  0  0  0  0  0  0  0  0  0
    7.0408  -26.2412   -9.2462 C   0  0  0  0  0  0  0  0  0  0  0  0
    8.3370  -28.2556   -9.5609 C   0  0  0  0  0  0  0  0  0  0  0  0
   12.9060  -26.6075  -10.9049 C   0  0  0  0  0  0  0  0  0  0  0  0
    8.7268  -26.3352  -10.9741 C   0  0  0  0  0  0  0  0  0  0  0  0
    7.3429  -27.5528   -8.8800 C   0  0  0  0  0  0  0  0  0  0  0  0
   12.0669  -26.1254  -11.9377 C   0  0  0  0  0  0  0  0  0  0  0  0
   13.7609  -27.5082  -11.4964 C   0  0  0  0  0  0  0  0  0  0  0  0
   12.4691  -26.7657  -13.0868 C   0  0  0  0  0  0  0  0  0  0  0  0
   14.8553  -28.2912  -10.7679 C   0  0  0  0  0  0  0  0  0  0  0  0
   12.0156  -26.7138  -14.4847 C   0  0  0  0  0  0  0  0  0  0  0  0
    5.7344  -29.7265   -8.4320 C   0  0  0  0  0  0  0  0  0  0  0  0
    9.3952  -25.7473  -11.9851 N   0  5  0  0  0  0  0  0  0  0  0  0
   15.5469  -29.0764  -11.4715 O   0  5  0  0  0  0  0  0  0  0  0  0
   14.9665  -28.0810   -9.5297 O   0  0  0  0  0  0  0  0  0  0  0  0
   10.9474  -24.4029  -10.4200 O   0  0  0  0  0  0  0  0  0  0  0  0
   11.0546  -23.9592  -12.8321 O   0  0  0  0  0  0  0  0  0  0  0  0
   13.5013  -27.6103  -12.8263 O   0  0  0  0  0  0  0  0  0  0  0  0
    6.4585  -28.3310   -7.5428 S   0  0  0  0  0  0  0  0  0  0  0  0
   10.7400  -24.9155  -11.7728 S   0  0  0  0  0  0  0  0  0  0  0  0
    7.4824  -24.6090  -10.5647 H   0  0  0  0  0  0  0  0  0  0  0  0
    9.8013  -28.2106  -11.1265 H   0  0  0  0  0  0  0  0  0  0  0  0
    6.2684  -25.6782   -8.7278 H   0  0  0  0  0  0  0  0  0  0  0  0
    8.5872  -29.2782   -9.2889 H   0  0  0  0  0  0  0  0  0  0  0  0
   12.8885  -26.3317   -9.8596 H   0  0  0  0  0  0  0  0  0  0  0  0
   12.5596  -25.9412  -15.0562 H   0  0  0  0  0  0  0  0  0  0  0  0
   12.1609  -27.6762  -15.0087 H   0  0  0  0  0  0  0  0  0  0  0  0
   10.9365  -26.4874  -14.5672 H   0  0  0  0  0  0  0  0  0  0  0  0
    5.1379  -30.3344   -7.7473 H   0  0  0  0  0  0  0  0  0  0  0  0
    6.5269  -30.3454   -8.8598 H   0  0  0  0  0  0  0  0  0  0  0  0
    5.0925  -29.3607   -9.2370 H   0  0  0  0  0  0  0  0  0  0  0  0
  1  3  2  0  0  0  0
  1  6  1  0  0  0  0
  2  4  1  0  0  0  0
  2  6  2  0  0  0  0
  3  7  1  0  0  0  0
  4  7  2  0  0  0  0
  5  8  1  0  0  0  0
  5  9  2  0  0  0  0
  6 14  1  0  0  0  0
  7 20  1  0  0  0  0
  8 10  2  0  0  0  0
  8 21  1  0  0  0  0
  9 11  1  0  0  0  0
  9 19  1  0  0  0  0
 10 12  1  0  0  0  0
 10 19  1  0  0  0  0
 11 15  1  0  0  0  0
 11 16  2  0  0  0  0
 13 20  1  0  0  0  0
 14 21  1  0  0  0  0
 17 21  2  0  0  0  0
 18 21  2  0  0  0  0
  1 22  1  0  0  0  0
  2 23  1  0  0  0  0
  3 24  1  0  0  0  0
  4 25  1  0  0  0  0
  5 26  1  0  0  0  0
 12 27  1  0  0  0  0
 12 28  1  0  0  0  0
 12 29  1  0  0  0  0
 13 30  1  0  0  0  0
 13 31  1  0  0  0  0
 13 32  1  0  0  0  0
M  CHG  2  14  -1  15  -1
M  END
> <Hybrid2>
-4.604220867156982

> <Hybrid2>
-4.604221

$$$$
C55311221
  -OEChem-02152218493D

 32 33  0     0  0  0  0  0  0999 V2000
    7.7564  -26.7436   -9.4006 C   0  0  0  0  0  0  0  0  0  0  0  0
    8.4525  -28.6030  -10.7772 C   0  0  0  0  0  0  0  0  0  0  0  0
    7.1187  -27.6270   -8.5297 C   0  0  0  0  0  0  0  0  0  0  0  0
    7.8149  -29.4865   -9.9062 C   0  0  0  0  0  0  0  0  0  0  0  0
   12.5823  -26.8815  -10.1713 C   0  0  0  0  0  0  0  0  0  0  0  0
    8.4232  -27.2316  -10.5244 C   0  0  0  0  0  0  0  0  0  0  0  0
    7.1480  -28.9984   -8.7825 C   0  0  0  0  0  0  0  0  0  0  0  0
   11.7309  -26.3536  -11.1711 C   0  0  0  0  0  0  0  0  0  0  0  0
   13.6010  -27.5230  -10.8367 C   0  0  0  0  0  0  0  0  0  0  0  0
   12.2901  -26.7100  -12.3762 C   0  0  0  0  0  0  0  0  0  0  0  0
   14.7684  -28.2507  -10.1664 C   0  0  0  0  0  0  0  0  0  0  0  0
   11.9070  -26.4771  -13.7768 C   0  0  0  0  0  0  0  0  0  0  0  0
    4.6407  -29.5087   -7.7994 C   0  0  0  0  0  0  0  0  0  0  0  0
    9.0393  -26.3785  -11.3655 N   0  5  0  0  0  0  0  0  0  0  0  0
   15.6132  -28.7842  -10.9355 O   0  5  0  0  0  0  0  0  0  0  0  0
   14.7800  -28.2514   -8.9057 O   0  0  0  0  0  0  0  0  0  0  0  0
   10.2707  -25.1188   -9.4779 O   0  0  0  0  0  0  0  0  0  0  0  0
   10.4293  -24.2391  -11.7644 O   0  0  0  0  0  0  0  0  0  0  0  0
   13.4304  -27.4229  -12.1811 O   0  0  0  0  0  0  0  0  0  0  0  0
    6.3327  -30.1273   -7.6702 S   0  0  0  0  0  0  0  0  0  0  0  0
   10.2191  -25.4059  -10.9099 S   0  0  0  0  0  0  0  0  0  0  0  0
    7.7220  -25.6773   -9.1872 H   0  0  0  0  0  0  0  0  0  0  0  0
    8.9681  -29.0024  -11.6479 H   0  0  0  0  0  0  0  0  0  0  0  0
    6.6029  -27.2282   -7.6596 H   0  0  0  0  0  0  0  0  0  0  0  0
    7.8494  -30.5523  -10.1190 H   0  0  0  0  0  0  0  0  0  0  0  0
   12.4664  -26.8034   -9.0991 H   0  0  0  0  0  0  0  0  0  0  0  0
   12.3479  -25.5419  -14.1648 H   0  0  0  0  0  0  0  0  0  0  0  0
   12.2330  -27.2972  -14.4425 H   0  0  0  0  0  0  0  0  0  0  0  0
   10.8114  -26.4041  -13.9051 H   0  0  0  0  0  0  0  0  0  0  0  0
    3.9787  -30.1012   -7.1631 H   0  0  0  0  0  0  0  0  0  0  0  0
    4.2977  -29.5799   -8.8346 H   0  0  0  0  0  0  0  0  0  0  0  0
    4.6021  -28.4642   -7.4810 H   0  0  0  0  0  0  0  0  0  0  0  0
  1  3  2  0  0  0  0
  1  6  1  0  0  0  0
  2  4  1  0  0  0  0
  2  6  2  0  0  0  0
  3  7  1  0  0  0  0
  4  7  2  0  0  0  0
  5  8  1  0  0  0  0
  5  9  2  0  0  0  0
  6 14  1  0  0  0  0
  7 20  1  0  0  0  0
  8 10  2  0  0  0  0
  8 21  1  0  0  0  0
  9 11  1  0  0  0  0
  9 19  1  0  0  0  0
 10 12  1  0  0  0  0
 10 19  1  0  0  0  0
 11 15  1  0  0  0  0
 11 16  2  0  0  0  0
 13 20  1  0  0  0  0
 14 21  1  0  0  0  0
 17 21  2  0  0  0  0
 18 21  2  0  0  0  0
  1 22  1  0  0  0  0
  2 23  1  0  0  0  0
  3 24  1  0  0  0  0
  4 25  1  0  0  0  0
  5 26  1  0  0  0  0
 12 27  1  0  0  0  0
 12 28  1  0  0  0  0
 12 29  1  0  0  0  0
 13 30  1  0  0  0  0
 13 31  1  0  0  0  0
 13 32  1  0  0  0  0
M  CHG  2  14  -1  15  -1
M  END
> <Hybrid2>
-4.604220867156982

> <Hybrid2>
-4.066085

$$$$
C33007201
  -OEChem-02152218503D

 42 43  0     0  0  0  0  0  0999 V2000
   11.2569  -27.6257   -9.7870 C   0  0  0  0  0  0  0  0  0  0  0  0
    9.9338  -28.0247   -9.5979 C   0  0  0  0  0  0  0  0  0  0  0  0
    9.1827  -26.1849  -10.9720 C   0  0  0  0  0  0  0  0  0  0  0  0
   10.5059  -25.7859  -11.1610 C   0  0  0  0  0  0  0  0  0  0  0  0
   11.5430  -26.5062  -10.5685 C   0  0  0  0  0  0  0  0  0  0  0  0
    8.8967  -27.3043  -10.1905 C   0  0  0  0  0  0  0  0  0  0  0  0
   10.7655  -24.5954  -11.9968 C   0  0  0  0  0  0  0  0  0  0  0  0
    5.3774  -27.6458   -7.9121 C   0  0  0  0  0  0  0  0  0  0  0  0
    5.7000  -29.1378   -7.8458 C   0  0  0  0  0  0  0  0  0  0  0  0
    5.1986  -27.1287   -9.3396 C   0  0  0  0  0  0  0  0  0  0  0  0
    7.0519  -29.5326   -8.4369 C   0  0  0  0  0  0  0  0  0  0  0  0
    6.5029  -26.6973  -10.0129 C   0  0  0  0  0  0  0  0  0  0  0  0
    7.2258  -29.1232   -9.8979 C   0  0  0  0  0  0  0  0  0  0  0  0
   15.3503  -28.8756  -12.0685 C   0  0  0  0  0  0  0  0  0  0  0  0
   14.4167  -28.1297  -11.1416 C   0  0  0  0  0  0  0  0  0  0  0  0
   12.8310  -26.1399  -10.7352 N   0  5  0  0  0  0  0  0  0  0  0  0
    7.5685  -27.7041   -9.9995 N   0  0  0  0  0  0  0  0  0  0  0  0
   10.8065  -23.4434  -11.4287 O   0  5  0  0  0  0  0  0  0  0  0  0
   10.9400  -24.7579  -13.2597 O   0  0  0  0  0  0  0  0  0  0  0  0
   14.9168  -25.8831  -12.2413 O   0  0  0  0  0  0  0  0  0  0  0  0
   13.0167  -27.2275  -13.0737 O   0  0  0  0  0  0  0  0  0  0  0  0
   13.7364  -26.6827  -11.9257 S   0  0  0  0  0  0  0  0  0  0  0  0
   12.0515  -28.2003   -9.3151 H   0  0  0  0  0  0  0  0  0  0  0  0
    9.7221  -28.8986   -8.9876 H   0  0  0  0  0  0  0  0  0  0  0  0
    8.3728  -25.6246  -11.4343 H   0  0  0  0  0  0  0  0  0  0  0  0
    4.4337  -27.4903   -7.3741 H   0  0  0  0  0  0  0  0  0  0  0  0
    6.1394  -27.0643   -7.3799 H   0  0  0  0  0  0  0  0  0  0  0  0
    5.6792  -29.4526   -6.7951 H   0  0  0  0  0  0  0  0  0  0  0  0
    4.9063  -29.7030   -8.3505 H   0  0  0  0  0  0  0  0  0  0  0  0
    4.6642  -27.8609   -9.9563 H   0  0  0  0  0  0  0  0  0  0  0  0
    4.5495  -26.2441   -9.3009 H   0  0  0  0  0  0  0  0  0  0  0  0
    7.8653  -29.1201   -7.8270 H   0  0  0  0  0  0  0  0  0  0  0  0
    7.1432  -30.6240   -8.3686 H   0  0  0  0  0  0  0  0  0  0  0  0
    6.2750  -26.4207  -11.0506 H   0  0  0  0  0  0  0  0  0  0  0  0
    6.8714  -25.7906   -9.5156 H   0  0  0  0  0  0  0  0  0  0  0  0
    8.0429  -29.7292  -10.3128 H   0  0  0  0  0  0  0  0  0  0  0  0
    6.3418  -29.3661  -10.4991 H   0  0  0  0  0  0  0  0  0  0  0  0
   14.8157  -29.2088  -12.9630 H   0  0  0  0  0  0  0  0  0  0  0  0
   16.1826  -28.2377  -12.3836 H   0  0  0  0  0  0  0  0  0  0  0  0
   15.7743  -29.7555  -11.5740 H   0  0  0  0  0  0  0  0  0  0  0  0
   14.9429  -27.7927  -10.2442 H   0  0  0  0  0  0  0  0  0  0  0  0
   13.5750  -28.7605  -10.8431 H   0  0  0  0  0  0  0  0  0  0  0  0
  1  2  2  0  0  0  0
  1  5  1  0  0  0  0
  2  6  1  0  0  0  0
  3  4  1  0  0  0  0
  3  6  2  0  0  0  0
  4  5  2  0  0  0  0
  4  7  1  0  0  0  0
  5 16  1  0  0  0  0
  6 17  1  0  0  0  0
  7 18  1  0  0  0  0
  7 19  2  0  0  0  0
  8  9  1  0  0  0  0
  8 10  1  0  0  0  0
  9 11  1  0  0  0  0
 10 12  1  0  0  0  0
 11 13  1  0  0  0  0
 12 17  1  0  0  0  0
 13 17  1  0  0  0  0
 14 15  1  0  0  0  0
 15 22  1  0  0  0  0
 16 22  1  0  0  0  0
 20 22  2  0  0  0  0
 21 22  2  0  0  0  0
  1 23  1  0  0  0  0
  2 24  1  0  0  0  0
  3 25  1  0  0  0  0
  8 26  1  0  0  0  0
  8 27  1  0  0  0  0
  9 28  1  0  0  0  0
  9 29  1  0  0  0  0
 10 30  1  0  0  0  0
 10 31  1  0  0  0  0
 11 32  1  0  0  0  0
 11 33  1  0  0  0  0
 12 34  1  0  0  0  0
 12 35  1  0  0  0  0
 13 36  1  0  0  0  0
 13 37  1  0  0  0  0
 14 38  1  0  0  0  0
 14 39  1  0  0  0  0
 14 40  1  0  0  0  0
 15 41  1  0  0  0  0
 15 42  1  0  0  0  0
M  CHG  2  16  -1  18  -1
M  END
> <Hybrid2>
-4.280280590057373

> <Hybrid2>
-4.280281

$$$$
C33007201
  -OEChem-02152218503D

 42 43  0     0  0  0  0  0  0999 V2000
    9.3215  -27.5011   -9.0630 C   0  0  0  0  0  0  0  0  0  0  0  0
   10.4940  -27.5881   -9.8135 C   0  0  0  0  0  0  0  0  0  0  0  0
    9.5957  -26.0033  -11.4005 C   0  0  0  0  0  0  0  0  0  0  0  0
    8.4232  -25.9164  -10.6501 C   0  0  0  0  0  0  0  0  0  0  0  0
    8.2860  -26.6653   -9.4814 C   0  0  0  0  0  0  0  0  0  0  0  0
   10.6312  -26.8391  -10.9822 C   0  0  0  0  0  0  0  0  0  0  0  0
    7.3513  -25.0185  -11.1276 C   0  0  0  0  0  0  0  0  0  0  0  0
   14.3401  -25.3774  -12.3240 C   0  0  0  0  0  0  0  0  0  0  0  0
   13.6460  -25.1766  -13.6702 C   0  0  0  0  0  0  0  0  0  0  0  0
   14.3297  -26.8305  -11.8491 C   0  0  0  0  0  0  0  0  0  0  0  0
   12.1411  -25.4382  -13.6657 C   0  0  0  0  0  0  0  0  0  0  0  0
   13.0766  -27.2188  -11.0621 C   0  0  0  0  0  0  0  0  0  0  0  0
   11.7639  -26.8417  -13.1965 C   0  0  0  0  0  0  0  0  0  0  0  0
    5.3316  -29.9970   -7.8903 C   0  0  0  0  0  0  0  0  0  0  0  0
    6.3673  -28.8950   -7.8784 C   0  0  0  0  0  0  0  0  0  0  0  0
    7.1612  -26.5997   -8.7387 N   0  5  0  0  0  0  0  0  0  0  0  0
   11.8076  -26.9275  -11.7361 N   0  0  0  0  0  0  0  0  0  0  0  0
    6.4606  -25.4942  -11.9226 O   0  5  0  0  0  0  0  0  0  0  0  0
    7.3513  -23.7965  -10.7299 O   0  0  0  0  0  0  0  0  0  0  0  0
    5.8459  -28.2070  -10.2786 O   0  0  0  0  0  0  0  0  0  0  0  0
    4.6431  -27.0969   -8.4261 O   0  0  0  0  0  0  0  0  0  0  0  0
    5.9158  -27.5625   -8.9701 S   0  0  0  0  0  0  0  0  0  0  0  0
    9.2336  -28.0944   -8.1551 H   0  0  0  0  0  0  0  0  0  0  0  0
   11.2948  -28.2419   -9.4782 H   0  0  0  0  0  0  0  0  0  0  0  0
    9.7045  -25.4192  -12.3118 H   0  0  0  0  0  0  0  0  0  0  0  0
   15.3857  -25.0674  -12.4449 H   0  0  0  0  0  0  0  0  0  0  0  0
   13.9045  -24.7167  -11.5652 H   0  0  0  0  0  0  0  0  0  0  0  0
   13.8142  -24.1435  -13.9985 H   0  0  0  0  0  0  0  0  0  0  0  0
   14.1218  -25.8183  -14.4226 H   0  0  0  0  0  0  0  0  0  0  0  0
   14.4923  -27.5170  -12.6883 H   0  0  0  0  0  0  0  0  0  0  0  0
   15.1872  -26.9741  -11.1786 H   0  0  0  0  0  0  0  0  0  0  0  0
   11.6287  -24.6831  -13.0567 H   0  0  0  0  0  0  0  0  0  0  0  0
   11.7732  -25.3039  -14.6907 H   0  0  0  0  0  0  0  0  0  0  0  0
   13.1335  -28.2923  -10.8393 H   0  0  0  0  0  0  0  0  0  0  0  0
   13.0901  -26.6928  -10.0986 H   0  0  0  0  0  0  0  0  0  0  0  0
   10.7412  -27.0400  -13.5457 H   0  0  0  0  0  0  0  0  0  0  0  0
   12.3905  -27.6114  -13.6621 H   0  0  0  0  0  0  0  0  0  0  0  0
    4.3624  -29.6146   -7.5566 H   0  0  0  0  0  0  0  0  0  0  0  0
    5.2097  -30.4100   -8.8970 H   0  0  0  0  0  0  0  0  0  0  0  0
    5.6239  -30.8177   -7.2273 H   0  0  0  0  0  0  0  0  0  0  0  0
    7.3399  -29.2684   -8.2107 H   0  0  0  0  0  0  0  0  0  0  0  0
    6.4744  -28.4693   -6.8770 H   0  0  0  0  0  0  0  0  0  0  0  0
  1  2  2  0  0  0  0
  1  5  1  0  0  0  0
  2  6  1  0  0  0  0
  3  4  1  0  0  0  0
  3  6  2  0  0  0  0
  4  5  2  0  0  0  0
  4  7  1  0  0  0  0
  5 16  1  0  0  0  0
  6 17  1  0  0  0  0
  7 18  1  0  0  0  0
  7 19  2  0  0  0  0
  8  9  1  0  0  0  0
  8 10  1  0  0  0  0
  9 11  1  0  0  0  0
 10 12  1  0  0  0  0
 11 13  1  0  0  0  0
 12 17  1  0  0  0  0
 13 17  1  0  0  0  0
 14 15  1  0  0  0  0
 15 22  1  0  0  0  0
 16 22  1  0  0  0  0
 20 22  2  0  0  0  0
 21 22  2  0  0  0  0
  1 23  1  0  0  0  0
  2 24  1  0  0  0  0
  3 25  1  0  0  0  0
  8 26  1  0  0  0  0
  8 27  1  0  0  0  0
  9 28  1  0  0  0  0
  9 29  1  0  0  0  0
 10 30  1  0  0  0  0
 10 31  1  0  0  0  0
 11 32  1  0  0  0  0
 11 33  1  0  0  0  0
 12 34  1  0  0  0  0
 12 35  1  0  0  0  0
 13 36  1  0  0  0  0
 13 37  1  0  0  0  0
 14 38  1  0  0  0  0
 14 39  1  0  0  0  0
 14 40  1  0  0  0  0
 15 41  1  0  0  0  0
 15 42  1  0  0  0  0
M  CHG  2  16  -1  18  -1
M  END
> <Hybrid2>
-4.280280590057373

> <Hybrid2>
-3.865544

$$$$
C06648848
  -OEChem-02152218503D

 29 30  0     1  0  0  0  0  0999 V2000
    8.4016  -24.2535   -9.4863 C   0  0  0  0  0  0  0  0  0  0  0  0
    6.0726  -24.9235   -9.3583 C   0  0  0  0  0  0  0  0  0  0  0  0
    6.2278  -30.3185   -8.6064 C   0  0  0  0  0  0  0  0  0  0  0  0
    7.3856  -30.3088   -9.3840 C   0  0  0  0  0  0  0  0  0  0  0  0
    5.5725  -29.1217   -8.3161 C   0  0  0  0  0  0  0  0  0  0  0  0
    7.8884  -29.1024   -9.8713 C   0  0  0  0  0  0  0  0  0  0  0  0
    6.0753  -27.9153   -8.8034 C   0  0  0  0  0  0  0  0  0  0  0  0
    7.2332  -27.9056   -9.5810 C   0  0  0  0  0  0  0  0  0  0  0  0
    9.2673  -26.7282  -10.3736 C   0  0  0  0  0  0  0  0  0  0  0  0
   10.1565  -26.9750   -9.3802 C   0  0  0  0  0  0  0  0  0  0  0  0
    9.8605  -26.6001  -11.7675 C   0  0  0  0  0  0  0  0  0  0  0  0
   12.0018  -26.9658  -10.9805 C   0  0  0  0  0  0  0  0  0  0  0  0
    7.4745  -25.3693   -9.1953 C   0  0  0  0  0  0  0  0  0  0  0  0
    7.7813  -26.5890  -10.1122 C   0  0  2  0  0  0  0  0  0  0  0  0
    9.1315  -23.3798   -9.7121 N   0  0  0  0  0  0  0  0  0  0  0  0
    4.9728  -24.5747   -9.4841 N   0  0  0  0  0  0  0  0  0  0  0  0
   11.1308  -26.7159  -12.0129 N   0  0  0  0  0  0  0  0  0  0  0  0
   11.4915  -27.0870   -9.7044 N   0  0  0  0  0  0  0  0  0  0  0  0
   10.0082  -27.1342   -8.1388 O   0  5  0  0  0  0  0  0  0  0  0  0
    8.9438  -26.3759  -12.5776 O   0  5  0  0  0  0  0  0  0  0  0  0
   13.6637  -27.1307  -11.2063 S   0  0  0  0  0  0  0  0  0  0  0  0
    5.8357  -31.2580   -8.2281 H   0  0  0  0  0  0  0  0  0  0  0  0
    7.8953  -31.2406   -9.6111 H   0  0  0  0  0  0  0  0  0  0  0  0
    4.6704  -29.1290   -7.7116 H   0  0  0  0  0  0  0  0  0  0  0  0
    8.7913  -29.1044  -10.4763 H   0  0  0  0  0  0  0  0  0  0  0  0
    5.5582  -26.9878   -8.5720 H   0  0  0  0  0  0  0  0  0  0  0  0
    7.6115  -25.6546   -8.1436 H   0  0  0  0  0  0  0  0  0  0  0  0
    7.3240  -26.3954  -11.0919 H   0  0  0  0  0  0  0  0  0  0  0  0
   12.1357  -27.2718   -8.9409 H   0  0  0  0  0  0  0  0  0  0  0  0
  1 13  1  0  0  0  0
  1 15  3  0  0  0  0
  2 13  1  0  0  0  0
  2 16  3  0  0  0  0
  3  4  1  0  0  0  0
  3  5  2  0  0  0  0
  4  6  2  0  0  0  0
  5  7  1  0  0  0  0
  6  8  1  0  0  0  0
  7  8  2  0  0  0  0
  8 14  1  0  0  0  0
  9 10  2  0  0  0  0
  9 11  1  0  0  0  0
  9 14  1  0  0  0  0
 10 18  1  0  0  0  0
 10 19  1  0  0  0  0
 11 17  2  0  0  0  0
 11 20  1  0  0  0  0
 12 17  1  0  0  0  0
 12 18  1  0  0  0  0
 12 21  2  0  0  0  0
 13 14  1  0  0  0  0
  3 22  1  0  0  0  0
  4 23  1  0  0  0  0
  5 24  1  0  0  0  0
  6 25  1  0  0  0  0
  7 26  1  0  0  0  0
 13 27  1  0  0  0  0
 14 28  1  0  0  0  0
 18 29  1  0  0  0  0
M  CHG  2  19  -1  20  -1
M  END
> <Hybrid2>
-4.5657877922058105

> <Hybrid2>
-4.565788

$$$$
C06648848
  -OEChem-02152218503D

 29 30  0     1  0  0  0  0  0999 V2000
    8.7315  -24.1888   -9.3995 C   0  0  0  0  0  0  0  0  0  0  0  0
    6.4025  -24.8588   -9.2715 C   0  0  0  0  0  0  0  0  0  0  0  0
    6.5577  -30.2537   -8.5195 C   0  0  0  0  0  0  0  0  0  0  0  0
    7.7155  -30.2440   -9.2972 C   0  0  0  0  0  0  0  0  0  0  0  0
    5.9024  -29.0570   -8.2293 C   0  0  0  0  0  0  0  0  0  0  0  0
    8.2183  -29.0376   -9.7845 C   0  0  0  0  0  0  0  0  0  0  0  0
    6.4052  -27.8506   -8.7166 C   0  0  0  0  0  0  0  0  0  0  0  0
    7.5631  -27.8409   -9.4942 C   0  0  0  0  0  0  0  0  0  0  0  0
    9.5972  -26.6635  -10.2867 C   0  0  0  0  0  0  0  0  0  0  0  0
   10.4864  -26.9103   -9.2934 C   0  0  0  0  0  0  0  0  0  0  0  0
   10.1904  -26.5354  -11.6807 C   0  0  0  0  0  0  0  0  0  0  0  0
   12.3317  -26.9011  -10.8937 C   0  0  0  0  0  0  0  0  0  0  0  0
    7.8044  -25.3046   -9.1085 C   0  0  0  0  0  0  0  0  0  0  0  0
    8.1112  -26.5243  -10.0254 C   0  0  2  0  0  0  0  0  0  0  0  0
    9.4614  -23.3151   -9.6253 N   0  0  0  0  0  0  0  0  0  0  0  0
    5.3027  -24.5100   -9.3973 N   0  0  0  0  0  0  0  0  0  0  0  0
   11.4607  -26.6511  -11.9261 N   0  0  0  0  0  0  0  0  0  0  0  0
   11.8214  -27.0223   -9.6176 N   0  0  0  0  0  0  0  0  0  0  0  0
   10.3381  -27.0695   -8.0520 O   0  5  0  0  0  0  0  0  0  0  0  0
    9.2737  -26.3112  -12.4908 O   0  5  0  0  0  0  0  0  0  0  0  0
   13.9936  -27.0659  -11.1194 S   0  0  0  0  0  0  0  0  0  0  0  0
    6.1656  -31.1933   -8.1413 H   0  0  0  0  0  0  0  0  0  0  0  0
    8.2253  -31.1759   -9.5242 H   0  0  0  0  0  0  0  0  0  0  0  0
    5.0003  -29.0643   -7.6248 H   0  0  0  0  0  0  0  0  0  0  0  0
    9.1212  -29.0397  -10.3895 H   0  0  0  0  0  0  0  0  0  0  0  0
    5.8881  -26.9231   -8.4852 H   0  0  0  0  0  0  0  0  0  0  0  0
    7.9414  -25.5899   -8.0568 H   0  0  0  0  0  0  0  0  0  0  0  0
    7.6539  -26.3307  -11.0051 H   0  0  0  0  0  0  0  0  0  0  0  0
   12.4656  -27.2071   -8.8540 H   0  0  0  0  0  0  0  0  0  0  0  0
  1 13  1  0  0  0  0
  1 15  3  0  0  0  0
  2 13  1  0  0  0  0
  2 16  3  0  0  0  0
  3  4  1  0  0  0  0
  3  5  2  0  0  0  0
  4  6  2  0  0  0  0
  5  7  1  0  0  0  0
  6  8  1  0  0  0  0
  7  8  2  0  0  0  0
  8 14  1  0  0  0  0
  9 10  2  0  0  0  0
  9 11  1  0  0  0  0
  9 14  1  0  0  0  0
 10 18  1  0  0  0  0
 10 19  1  0  0  0  0
 11 17  2  0  0  0  0
 11 20  1  0  0  0  0
 12 17  1  0  0  0  0
 12 18  1  0  0  0  0
 12 21  2  0  0  0  0
 13 14  1  0  0  0  0
  3 22  1  0  0  0  0
  4 23  1  0  0  0  0
  5 24  1  0  0  0  0
  6 25  1  0  0  0  0
  7 26  1  0  0  0  0
 13 27  1  0  0  0  0
 14 28  1  0  0  0  0
 18 29  1  0  0  0  0
M  CHG  2  19  -1  20  -1
M  END
> <Hybrid2>
-4.5657877922058105

> <Hybrid2>
-4.387640

$$$$
C57905298
  -OEChem-02152218503D

 30 30  0     0  0  0  0  0  0999 V2000
    8.1856  -25.3563   -9.3904 C   0  0  0  0  0  0  0  0  0  0  0  0
    7.7708  -26.6627   -9.5431 C   0  0  0  0  0  0  0  0  0  0  0  0
   10.1250  -26.2650   -9.8624 C   0  0  0  0  0  0  0  0  0  0  0  0
    6.1734  -27.7026   -7.9749 C   0  0  0  0  0  0  0  0  0  0  0  0
   11.5910  -24.9122  -12.3637 C   0  0  0  0  0  0  0  0  0  0  0  0
    7.3243  -24.2050   -9.0510 C   0  0  0  0  0  0  0  0  0  0  0  0
   12.3768  -25.3383   -9.3128 C   0  0  0  0  0  0  0  0  0  0  0  0
   12.2167  -27.7845   -9.6907 C   0  0  0  0  0  0  0  0  0  0  0  0
    6.4230  -27.2536   -9.4194 C   0  0  0  0  0  0  0  0  0  0  0  0
   11.9743  -26.2110  -11.6355 C   0  0  0  0  0  0  0  0  0  0  0  0
   11.6318  -26.4210  -10.1337 C   0  0  0  0  0  0  0  0  0  0  0  0
    9.5353  -25.1264   -9.5727 N   0  0  0  0  0  0  0  0  0  0  0  0
    6.1763  -26.7761   -7.1157 O   0  5  0  0  0  0  0  0  0  0  0  0
   12.1914  -23.8851  -11.9313 O   0  5  0  0  0  0  0  0  0  0  0  0
    5.9935  -28.9439   -7.8212 O   0  0  0  0  0  0  0  0  0  0  0  0
   10.7371  -25.0051  -13.2857 O   0  0  0  0  0  0  0  0  0  0  0  0
    9.1166  -27.6518   -9.9327 S   0  0  0  0  0  0  0  0  0  0  0  0
    7.2605  -24.0663   -7.9597 H   0  0  0  0  0  0  0  0  0  0  0  0
    7.7010  -23.2650   -9.4879 H   0  0  0  0  0  0  0  0  0  0  0  0
    6.2978  -24.3306   -9.4346 H   0  0  0  0  0  0  0  0  0  0  0  0
   13.4622  -25.3870   -9.4558 H   0  0  0  0  0  0  0  0  0  0  0  0
   12.1867  -25.4549   -8.2392 H   0  0  0  0  0  0  0  0  0  0  0  0
   12.0536  -24.3305   -9.6002 H   0  0  0  0  0  0  0  0  0  0  0  0
   13.2889  -27.8640   -9.8971 H   0  0  0  0  0  0  0  0  0  0  0  0
   11.7181  -28.6195  -10.1975 H   0  0  0  0  0  0  0  0  0  0  0  0
   12.0809  -27.9400   -8.6137 H   0  0  0  0  0  0  0  0  0  0  0  0
    5.6327  -26.5389   -9.7179 H   0  0  0  0  0  0  0  0  0  0  0  0
    6.2916  -28.1196  -10.0953 H   0  0  0  0  0  0  0  0  0  0  0  0
   13.0553  -26.3297  -11.7908 H   0  0  0  0  0  0  0  0  0  0  0  0
   11.5119  -27.0261  -12.2119 H   0  0  0  0  0  0  0  0  0  0  0  0
  1  2  2  0  0  0  0
  1  6  1  0  0  0  0
  1 12  1  0  0  0  0
  2  9  1  0  0  0  0
  2 17  1  0  0  0  0
  3 11  1  0  0  0  0
  3 12  2  0  0  0  0
  3 17  1  0  0  0  0
  4  9  1  0  0  0  0
  4 13  1  0  0  0  0
  4 15  2  0  0  0  0
  5 10  1  0  0  0  0
  5 14  1  0  0  0  0
  5 16  2  0  0  0  0
  7 11  1  0  0  0  0
  8 11  1  0  0  0  0
 10 11  1  0  0  0  0
  6 18  1  0  0  0  0
  6 19  1  0  0  0  0
  6 20  1  0  0  0  0
  7 21  1  0  0  0  0
  7 22  1  0  0  0  0
  7 23  1  0  0  0  0
  8 24  1  0  0  0  0
  8 25  1  0  0  0  0
  8 26  1  0  0  0  0
  9 27  1  0  0  0  0
  9 28  1  0  0  0  0
 10 29  1  0  0  0  0
 10 30  1  0  0  0  0
M  CHG  2  13  -1  14  -1
M  END
> <Hybrid2>
-2.7779593467712402

> <Hybrid2>
-2.777959

$$$$
C57905298
  -OEChem-02152218503D

 30 30  0     0  0  0  0  0  0999 V2000
    8.5058  -28.1471   -9.7767 C   0  0  0  0  0  0  0  0  0  0  0  0
    7.8598  -27.0217   -9.3095 C   0  0  0  0  0  0  0  0  0  0  0  0
    9.5561  -26.6418  -10.9771 C   0  0  0  0  0  0  0  0  0  0  0  0
    5.4134  -26.9777   -8.9847 C   0  0  0  0  0  0  0  0  0  0  0  0
   12.7917  -27.0484  -10.9781 C   0  0  0  0  0  0  0  0  0  0  0  0
    8.2468  -29.5377   -9.3506 C   0  0  0  0  0  0  0  0  0  0  0  0
    9.8084  -25.9460  -13.3610 C   0  0  0  0  0  0  0  0  0  0  0  0
   10.9293  -24.5487  -11.6454 C   0  0  0  0  0  0  0  0  0  0  0  0
    6.7850  -26.8895   -8.3054 C   0  0  0  0  0  0  0  0  0  0  0  0
   11.8234  -26.8418  -12.1545 C   0  0  0  0  0  0  0  0  0  0  0  0
   10.5248  -26.0034  -11.9882 C   0  0  0  0  0  0  0  0  0  0  0  0
    9.4786  -27.9312  -10.7332 N   0  0  0  0  0  0  0  0  0  0  0  0
    5.1634  -28.0794   -9.5506 O   0  5  0  0  0  0  0  0  0  0  0  0
   13.8557  -27.6589  -11.2904 O   0  5  0  0  0  0  0  0  0  0  0  0
    4.7005  -25.9382   -8.8937 O   0  0  0  0  0  0  0  0  0  0  0  0
   12.4295  -26.6048   -9.8556 O   0  0  0  0  0  0  0  0  0  0  0  0
    8.4891  -25.6309  -10.0913 S   0  0  0  0  0  0  0  0  0  0  0  0
    7.4726  -30.0067   -9.9790 H   0  0  0  0  0  0  0  0  0  0  0  0
    9.1531  -30.1632   -9.4107 H   0  0  0  0  0  0  0  0  0  0  0  0
    7.9072  -29.5915   -8.3025 H   0  0  0  0  0  0  0  0  0  0  0  0
   10.4406  -25.5003  -14.1374 H   0  0  0  0  0  0  0  0  0  0  0  0
    8.8931  -25.3449  -13.3051 H   0  0  0  0  0  0  0  0  0  0  0  0
    9.5271  -26.9491  -13.7038 H   0  0  0  0  0  0  0  0  0  0  0  0
   11.6180  -24.1236  -12.3827 H   0  0  0  0  0  0  0  0  0  0  0  0
   11.4142  -24.4870  -10.6638 H   0  0  0  0  0  0  0  0  0  0  0  0
   10.0502  -23.8942  -11.6070 H   0  0  0  0  0  0  0  0  0  0  0  0
    6.8535  -27.6716   -7.5257 H   0  0  0  0  0  0  0  0  0  0  0  0
    6.8548  -25.9329   -7.7539 H   0  0  0  0  0  0  0  0  0  0  0  0
   11.5725  -27.8497  -12.5122 H   0  0  0  0  0  0  0  0  0  0  0  0
   12.4223  -26.3934  -12.9611 H   0  0  0  0  0  0  0  0  0  0  0  0
  1  2  2  0  0  0  0
  1  6  1  0  0  0  0
  1 12  1  0  0  0  0
  2  9  1  0  0  0  0
  2 17  1  0  0  0  0
  3 11  1  0  0  0  0
  3 12  2  0  0  0  0
  3 17  1  0  0  0  0
  4  9  1  0  0  0  0
  4 13  1  0  0  0  0
  4 15  2  0  0  0  0
  5 10  1  0  0  0  0
  5 14  1  0  0  0  0
  5 16  2  0  0  0  0
  7 11  1  0  0  0  0
  8 11  1  0  0  0  0
 10 11  1  0  0  0  0
  6 18  1  0  0  0  0
  6 19  1  0  0  0  0
  6 20  1  0  0  0  0
  7 21  1  0  0  0  0
  7 22  1  0  0  0  0
  7 23  1  0  0  0  0
  8 24  1  0  0  0  0
  8 25  1  0  0  0  0
  8 26  1  0  0  0  0
  9 27  1  0  0  0  0
  9 28  1  0  0  0  0
 10 29  1  0  0  0  0
 10 30  1  0  0  0  0
M  CHG  2  13  -1  14  -1
M  END
> <Hybrid2>
-2.7779593467712402

> <Hybrid2>
-2.383394

$$$$
C42521305
  -OEChem-02152218503D

 30 30  0     1  0  0  0  0  0999 V2000
    6.5548  -26.4636   -8.8199 C   0  0  0  0  0  0  0  0  0  0  0  0
    5.8225  -27.5391   -8.3174 C   0  0  0  0  0  0  0  0  0  0  0  0
    7.7757  -26.6876   -9.4562 C   0  0  0  0  0  0  0  0  0  0  0  0
    6.3112  -28.8387   -8.4510 C   0  0  0  0  0  0  0  0  0  0  0  0
    7.5322  -29.0628   -9.0872 C   0  0  0  0  0  0  0  0  0  0  0  0
    8.2644  -27.9872   -9.5897 C   0  0  0  0  0  0  0  0  0  0  0  0
   11.9791  -26.7898   -9.5904 C   0  0  0  0  0  0  0  0  0  0  0  0
    5.5058  -29.9715   -7.9038 C   0  0  0  0  0  0  0  0  0  0  0  0
    8.0407  -30.4665   -9.2208 C   0  0  0  0  0  0  0  0  0  0  0  0
   11.3958  -24.9163  -11.2403 C   0  0  0  0  0  0  0  0  0  0  0  0
   10.8834  -26.0480  -10.3663 C   0  0  1  0  0  0  0  0  0  0  0  0
    9.4537  -28.1791  -10.2108 N   0  5  0  0  0  0  0  0  0  0  0  0
   12.8797  -27.3026  -10.3162 O   0  5  0  0  0  0  0  0  0  0  0  0
   11.8611  -26.8074   -8.3339 O   0  0  0  0  0  0  0  0  0  0  0  0
    8.9841  -26.4064  -12.0308 O   0  0  0  0  0  0  0  0  0  0  0  0
   11.0241  -27.7890  -12.2252 O   0  0  0  0  0  0  0  0  0  0  0  0
    9.9941  -27.2208  -11.3574 S   0  0  0  0  0  0  0  0  0  0  0  0
    6.1735  -25.4518   -8.7165 H   0  0  0  0  0  0  0  0  0  0  0  0
    4.8718  -27.3536   -7.8243 H   0  0  0  0  0  0  0  0  0  0  0  0
    8.3308  -25.8346   -9.8412 H   0  0  0  0  0  0  0  0  0  0  0  0
    4.8152  -30.3494   -8.6664 H   0  0  0  0  0  0  0  0  0  0  0  0
    6.1519  -30.7957   -7.5777 H   0  0  0  0  0  0  0  0  0  0  0  0
    4.9232  -29.6570   -7.0291 H   0  0  0  0  0  0  0  0  0  0  0  0
    7.6814  -30.9074  -10.1556 H   0  0  0  0  0  0  0  0  0  0  0  0
    9.1355  -30.4877   -9.2170 H   0  0  0  0  0  0  0  0  0  0  0  0
    7.7020  -31.0862   -8.3838 H   0  0  0  0  0  0  0  0  0  0  0  0
   12.1254  -25.2878  -11.9679 H   0  0  0  0  0  0  0  0  0  0  0  0
   10.5849  -24.4421  -11.8044 H   0  0  0  0  0  0  0  0  0  0  0  0
   11.8830  -24.1445  -10.6355 H   0  0  0  0  0  0  0  0  0  0  0  0
   10.1570  -25.6458   -9.6504 H   0  0  0  0  0  0  0  0  0  0  0  0
  1  2  2  0  0  0  0
  1  3  1  0  0  0  0
  2  4  1  0  0  0  0
  3  6  2  0  0  0  0
  4  5  2  0  0  0  0
  4  8  1  0  0  0  0
  5  6  1  0  0  0  0
  5  9  1  0  0  0  0
  6 12  1  0  0  0  0
  7 11  1  0  0  0  0
  7 13  1  0  0  0  0
  7 14  2  0  0  0  0
 10 11  1  0  0  0  0
 11 17  1  0  0  0  0
 12 17  1  0  0  0  0
 15 17  2  0  0  0  0
 16 17  2  0  0  0  0
  1 18  1  0  0  0  0
  2 19  1  0  0  0  0
  3 20  1  0  0  0  0
  8 21  1  0  0  0  0
  8 22  1  0  0  0  0
  8 23  1  0  0  0  0
  9 24  1  0  0  0  0
  9 25  1  0  0  0  0
  9 26  1  0  0  0  0
 10 27  1  0  0  0  0
 10 28  1  0  0  0  0
 10 29  1  0  0  0  0
 11 30  1  0  0  0  0
M  CHG  2  12  -1  13  -1
M  END
> <Hybrid2>
-3.959514617919922

> <Hybrid2>
-3.959515

$$$$
C42521305
  -OEChem-02152218503D

 30 30  0     1  0  0  0  0  0999 V2000
    5.8616  -27.4072   -7.8221 C   0  0  0  0  0  0  0  0  0  0  0  0
    5.9057  -28.7924   -7.6643 C   0  0  0  0  0  0  0  0  0  0  0  0
    6.6991  -26.7836   -8.7469 C   0  0  0  0  0  0  0  0  0  0  0  0
    6.7874  -29.5540   -8.4311 C   0  0  0  0  0  0  0  0  0  0  0  0
    7.6251  -28.9304   -9.3560 C   0  0  0  0  0  0  0  0  0  0  0  0
    7.5809  -27.5452   -9.5138 C   0  0  0  0  0  0  0  0  0  0  0  0
   11.5005  -27.1944  -11.0348 C   0  0  0  0  0  0  0  0  0  0  0  0
    6.8132  -31.0354   -8.2415 C   0  0  0  0  0  0  0  0  0  0  0  0
    8.5659  -29.7659  -10.1706 C   0  0  0  0  0  0  0  0  0  0  0  0
   11.7917  -26.1806   -8.6982 C   0  0  0  0  0  0  0  0  0  0  0  0
   10.8533  -26.8497   -9.6876 C   0  0  1  0  0  0  0  0  0  0  0  0
    8.3853  -26.9161  -10.4049 N   0  5  0  0  0  0  0  0  0  0  0  0
   12.7303  -27.4838  -10.9668 O   0  5  0  0  0  0  0  0  0  0  0  0
   10.7463  -27.1498  -12.0459 O   0  0  0  0  0  0  0  0  0  0  0  0
    9.2125  -25.1724   -8.6871 O   0  0  0  0  0  0  0  0  0  0  0  0
    9.8927  -24.9192  -11.0502 O   0  0  0  0  0  0  0  0  0  0  0  0
    9.4453  -25.8106   -9.9815 S   0  0  0  0  0  0  0  0  0  0  0  0
    5.1743  -26.8146   -7.2254 H   0  0  0  0  0  0  0  0  0  0  0  0
    5.2481  -29.2684   -6.9415 H   0  0  0  0  0  0  0  0  0  0  0  0
    6.6486  -25.7020   -8.8545 H   0  0  0  0  0  0  0  0  0  0  0  0
    6.0982  -31.5172   -8.9183 H   0  0  0  0  0  0  0  0  0  0  0  0
    7.8120  -31.4429   -8.4400 H   0  0  0  0  0  0  0  0  0  0  0  0
    6.5565  -31.3072   -7.2102 H   0  0  0  0  0  0  0  0  0  0  0  0
    8.0793  -30.0804  -11.0989 H   0  0  0  0  0  0  0  0  0  0  0  0
    9.4726  -29.2044  -10.4187 H   0  0  0  0  0  0  0  0  0  0  0  0
    8.8785  -30.6565   -9.6152 H   0  0  0  0  0  0  0  0  0  0  0  0
   12.2014  -25.2552   -9.1171 H   0  0  0  0  0  0  0  0  0  0  0  0
   11.2772  -25.9177   -7.7672 H   0  0  0  0  0  0  0  0  0  0  0  0
   12.6296  -26.8390   -8.4468 H   0  0  0  0  0  0  0  0  0  0  0  0
   10.4605  -27.7706   -9.2407 H   0  0  0  0  0  0  0  0  0  0  0  0
  1  2  2  0  0  0  0
  1  3  1  0  0  0  0
  2  4  1  0  0  0  0
  3  6  2  0  0  0  0
  4  5  2  0  0  0  0
  4  8  1  0  0  0  0
  5  6  1  0  0  0  0
  5  9  1  0  0  0  0
  6 12  1  0  0  0  0
  7 11  1  0  0  0  0
  7 13  1  0  0  0  0
  7 14  2  0  0  0  0
 10 11  1  0  0  0  0
 11 17  1  0  0  0  0
 12 17  1  0  0  0  0
 15 17  2  0  0  0  0
 16 17  2  0  0  0  0
  1 18  1  0  0  0  0
  2 19  1  0  0  0  0
  3 20  1  0  0  0  0
  8 21  1  0  0  0  0
  8 22  1  0  0  0  0
  8 23  1  0  0  0  0
  9 24  1  0  0  0  0
  9 25  1  0  0  0  0
  9 26  1  0  0  0  0
 10 27  1  0  0  0  0
 10 28  1  0  0  0  0
 10 29  1  0  0  0  0
 11 30  1  0  0  0  0
M  CHG  2  12  -1  13  -1
M  END
> <Hybrid2>
-3.959514617919922

> <Hybrid2>
-3.470896

$$$$
C42521841
  -OEChem-02152218503D

 30 30  0     1  0  0  0  0  0999 V2000
    7.2147  -25.7691   -9.6297 C   0  0  0  0  0  0  0  0  0  0  0  0
    7.6940  -28.0671   -9.0585 C   0  0  0  0  0  0  0  0  0  0  0  0
    8.5619  -25.5617   -9.9259 C   0  0  0  0  0  0  0  0  0  0  0  0
    9.0412  -27.8598   -9.3547 C   0  0  0  0  0  0  0  0  0  0  0  0
    9.4751  -26.6071   -9.7885 C   0  0  0  0  0  0  0  0  0  0  0  0
    6.7808  -27.0218   -9.1959 C   0  0  0  0  0  0  0  0  0  0  0  0
    9.8437  -26.4530  -13.1239 C   0  0  0  0  0  0  0  0  0  0  0  0
    8.9812  -24.2008  -10.3865 C   0  0  0  0  0  0  0  0  0  0  0  0
    9.9843  -29.0106   -9.1922 C   0  0  0  0  0  0  0  0  0  0  0  0
   12.3536  -26.3434  -13.6272 C   0  0  0  0  0  0  0  0  0  0  0  0
   11.2547  -26.1708  -12.5929 C   0  0  2  0  0  0  0  0  0  0  0  0
   10.7841  -26.4056  -10.0764 N   0  5  0  0  0  0  0  0  0  0  0  0
    9.6850  -27.6149  -13.5989 O   0  5  0  0  0  0  0  0  0  0  0  0
    9.0113  -25.5088  -13.0310 O   0  0  0  0  0  0  0  0  0  0  0  0
   10.9504  -28.4950  -11.5870 O   0  0  0  0  0  0  0  0  0  0  0  0
   13.0153  -27.2327  -11.0833 O   0  0  0  0  0  0  0  0  0  0  0  0
   11.5580  -27.2239  -11.1974 S   0  0  0  0  0  0  0  0  0  0  0  0
    4.9550  -27.3027   -8.7947 Br  0  0  0  0  0  0  0  0  0  0  0  0
    6.5070  -24.9503   -9.7386 H   0  0  0  0  0  0  0  0  0  0  0  0
    7.3612  -29.0461   -8.7208 H   0  0  0  0  0  0  0  0  0  0  0  0
    9.2585  -23.5812   -9.5273 H   0  0  0  0  0  0  0  0  0  0  0  0
    9.8377  -24.2627  -11.0672 H   0  0  0  0  0  0  0  0  0  0  0  0
    8.1713  -23.7038  -10.9326 H   0  0  0  0  0  0  0  0  0  0  0  0
   10.0501  -29.5784  -10.1262 H   0  0  0  0  0  0  0  0  0  0  0  0
   10.9870  -28.6618   -8.9207 H   0  0  0  0  0  0  0  0  0  0  0  0
    9.6502  -29.6829   -8.3938 H   0  0  0  0  0  0  0  0  0  0  0  0
   12.3488  -27.3610  -14.0323 H   0  0  0  0  0  0  0  0  0  0  0  0
   12.2267  -25.6558  -14.4708 H   0  0  0  0  0  0  0  0  0  0  0  0
   13.3387  -26.1587  -13.1861 H   0  0  0  0  0  0  0  0  0  0  0  0
   11.2865  -25.1447  -12.2082 H   0  0  0  0  0  0  0  0  0  0  0  0
  1  3  1  0  0  0  0
  1  6  2  0  0  0  0
  2  4  2  0  0  0  0
  2  6  1  0  0  0  0
  3  5  2  0  0  0  0
  3  8  1  0  0  0  0
  4  5  1  0  0  0  0
  4  9  1  0  0  0  0
  5 12  1  0  0  0  0
  6 18  1  0  0  0  0
  7 11  1  0  0  0  0
  7 13  1  0  0  0  0
  7 14  2  0  0  0  0
 10 11  1  0  0  0  0
 11 17  1  0  0  0  0
 12 17  1  0  0  0  0
 15 17  2  0  0  0  0
 16 17  2  0  0  0  0
  1 19  1  0  0  0  0
  2 20  1  0  0  0  0
  8 21  1  0  0  0  0
  8 22  1  0  0  0  0
  8 23  1  0  0  0  0
  9 24  1  0  0  0  0
  9 25  1  0  0  0  0
  9 26  1  0  0  0  0
 10 27  1  0  0  0  0
 10 28  1  0  0  0  0
 10 29  1  0  0  0  0
 11 30  1  0  0  0  0
M  CHG  2  12  -1  13  -1
M  END
> <Hybrid2>
-2.6595218181610107

> <Hybrid2>
-2.659522

$$$$
C42521841
  -OEChem-02152218503D

 30 30  0     1  0  0  0  0  0999 V2000
    6.6388  -29.6066   -8.2951 C   0  0  0  0  0  0  0  0  0  0  0  0
    5.7570  -27.3609   -8.1680 C   0  0  0  0  0  0  0  0  0  0  0  0
    7.3221  -29.2721   -9.4642 C   0  0  0  0  0  0  0  0  0  0  0  0
    6.4403  -27.0264   -9.3371 C   0  0  0  0  0  0  0  0  0  0  0  0
    7.2228  -27.9820   -9.9852 C   0  0  0  0  0  0  0  0  0  0  0  0
    5.8562  -28.6510   -7.6469 C   0  0  0  0  0  0  0  0  0  0  0  0
   11.5281  -26.5031  -10.3131 C   0  0  0  0  0  0  0  0  0  0  0  0
    8.1483  -30.3306  -10.1253 C   0  0  0  0  0  0  0  0  0  0  0  0
    6.3037  -25.6302   -9.8590 C   0  0  0  0  0  0  0  0  0  0  0  0
   10.8290  -28.3071  -11.9929 C   0  0  0  0  0  0  0  0  0  0  0  0
   10.4297  -27.4567  -10.7994 C   0  0  2  0  0  0  0  0  0  0  0  0
    7.8868  -27.6571  -11.1212 N   0  5  0  0  0  0  0  0  0  0  0  0
   11.9407  -25.6885  -11.1890 O   0  5  0  0  0  0  0  0  0  0  0  0
   11.8940  -26.6362   -9.1124 O   0  0  0  0  0  0  0  0  0  0  0  0
    8.9229  -25.5183  -10.1077 O   0  0  0  0  0  0  0  0  0  0  0  0
    9.2633  -25.9713  -12.5139 O   0  0  0  0  0  0  0  0  0  0  0  0
    8.9811  -26.5065  -11.1832 S   0  0  0  0  0  0  0  0  0  0  0  0
    4.9305  -29.1042   -6.0624 Br  0  0  0  0  0  0  0  0  0  0  0  0
    6.7198  -30.6142   -7.8933 H   0  0  0  0  0  0  0  0  0  0  0  0
    5.1483  -26.6116   -7.6667 H   0  0  0  0  0  0  0  0  0  0  0  0
    7.5418  -30.8841  -10.8498 H   0  0  0  0  0  0  0  0  0  0  0  0
    9.0062  -29.8912  -10.6468 H   0  0  0  0  0  0  0  0  0  0  0  0
    8.5470  -31.0361   -9.3875 H   0  0  0  0  0  0  0  0  0  0  0  0
    7.0834  -24.9907   -9.4321 H   0  0  0  0  0  0  0  0  0  0  0  0
    6.3893  -25.6087  -10.9512 H   0  0  0  0  0  0  0  0  0  0  0  0
    5.3243  -25.2095   -9.6045 H   0  0  0  0  0  0  0  0  0  0  0  0
   11.1190  -27.6756  -12.8396 H   0  0  0  0  0  0  0  0  0  0  0  0
   11.6822  -28.9542  -11.7611 H   0  0  0  0  0  0  0  0  0  0  0  0
    9.9989  -28.9448  -12.3143 H   0  0  0  0  0  0  0  0  0  0  0  0
   10.1458  -28.1169   -9.9714 H   0  0  0  0  0  0  0  0  0  0  0  0
  1  3  1  0  0  0  0
  1  6  2  0  0  0  0
  2  4  2  0  0  0  0
  2  6  1  0  0  0  0
  3  5  2  0  0  0  0
  3  8  1  0  0  0  0
  4  5  1  0  0  0  0
  4  9  1  0  0  0  0
  5 12  1  0  0  0  0
  6 18  1  0  0  0  0
  7 11  1  0  0  0  0
  7 13  1  0  0  0  0
  7 14  2  0  0  0  0
 10 11  1  0  0  0  0
 11 17  1  0  0  0  0
 12 17  1  0  0  0  0
 15 17  2  0  0  0  0
 16 17  2  0  0  0  0
  1 19  1  0  0  0  0
  2 20  1  0  0  0  0
  8 21  1  0  0  0  0
  8 22  1  0  0  0  0
  8 23  1  0  0  0  0
  9 24  1  0  0  0  0
  9 25  1  0  0  0  0
  9 26  1  0  0  0  0
 10 27  1  0  0  0  0
 10 28  1  0  0  0  0
 10 29  1  0  0  0  0
 11 30  1  0  0  0  0
M  CHG  2  12  -1  13  -1
M  END
> <Hybrid2>
-2.6595218181610107

> <Hybrid2>
-2.556134

$$$$
C61093778
  -OEChem-02152218503D

 25 26  0     0  0  0  0  0  0999 V2000
    9.0861  -25.4955  -12.7925 C   0  0  0  0  0  0  0  0  0  0  0  0
    8.6710  -28.2650   -9.4339 C   0  0  0  0  0  0  0  0  0  0  0  0
    6.1817  -27.0317   -9.1794 C   0  0  0  0  0  0  0  0  0  0  0  0
    9.3313  -26.1989  -13.9512 C   0  0  0  0  0  0  0  0  0  0  0  0
    8.5928  -26.8870   -9.2325 C   0  0  0  0  0  0  0  0  0  0  0  0
    7.5046  -29.0264   -9.5082 C   0  0  0  0  0  0  0  0  0  0  0  0
    7.3481  -26.2704   -9.1052 C   0  0  0  0  0  0  0  0  0  0  0  0
    6.2599  -28.4097   -9.3809 C   0  0  0  0  0  0  0  0  0  0  0  0
   10.0832  -25.7309  -11.8022 C   0  0  0  0  0  0  0  0  0  0  0  0
   11.0525  -26.6056  -12.2418 C   0  0  0  0  0  0  0  0  0  0  0  0
   12.2611  -27.0672  -11.4174 C   0  0  0  0  0  0  0  0  0  0  0  0
    9.7220  -26.1555   -9.1619 N   0  5  0  0  0  0  0  0  0  0  0  0
   13.3031  -26.3673  -11.5156 O   0  5  0  0  0  0  0  0  0  0  0  0
   12.0976  -28.1028  -10.7201 O   0  0  0  0  0  0  0  0  0  0  0  0
   11.3993  -24.4090  -10.0575 O   0  0  0  0  0  0  0  0  0  0  0  0
    8.9994  -23.9612  -10.3153 O   0  0  0  0  0  0  0  0  0  0  0  0
    7.5805  -30.3494   -9.7030 F   0  0  0  0  0  0  0  0  0  0  0  0
    7.2529  -24.9463   -8.9112 F   0  0  0  0  0  0  0  0  0  0  0  0
    5.1396  -29.1406   -9.4528 F   0  0  0  0  0  0  0  0  0  0  0  0
   10.7588  -27.1386  -13.8424 S   0  0  0  0  0  0  0  0  0  0  0  0
   10.0523  -24.9642  -10.1703 S   0  0  0  0  0  0  0  0  0  0  0  0
    8.2305  -24.8443  -12.6665 H   0  0  0  0  0  0  0  0  0  0  0  0
    9.6321  -28.7643   -9.5358 H   0  0  0  0  0  0  0  0  0  0  0  0
    5.2121  -26.5525   -9.0816 H   0  0  0  0  0  0  0  0  0  0  0  0
    8.7419  -26.2056  -14.8572 H   0  0  0  0  0  0  0  0  0  0  0  0
  1  4  2  0  0  0  0
  1  9  1  0  0  0  0
  2  5  1  0  0  0  0
  2  6  2  0  0  0  0
  3  7  1  0  0  0  0
  3  8  2  0  0  0  0
  4 20  1  0  0  0  0
  5  7  2  0  0  0  0
  5 12  1  0  0  0  0
  6  8  1  0  0  0  0
  6 17  1  0  0  0  0
  7 18  1  0  0  0  0
  8 19  1  0  0  0  0
  9 10  2  0  0  0  0
  9 21  1  0  0  0  0
 10 11  1  0  0  0  0
 10 20  1  0  0  0  0
 11 13  1  0  0  0  0
 11 14  2  0  0  0  0
 12 21  1  0  0  0  0
 15 21  2  0  0  0  0
 16 21  2  0  0  0  0
  1 22  1  0  0  0  0
  2 23  1  0  0  0  0
  3 24  1  0  0  0  0
  4 25  1  0  0  0  0
M  CHG  2  12  -1  13  -1
M  END
> <Hybrid2>
-4.6393609046936035

> <Hybrid2>
-4.639361

$$$$
C61093778
  -OEChem-02152218503D

 25 26  0     0  0  0  0  0  0999 V2000
   11.6916  -27.1226   -8.8855 C   0  0  0  0  0  0  0  0  0  0  0  0
    8.1751  -28.7531   -9.8467 C   0  0  0  0  0  0  0  0  0  0  0  0
    5.7646  -28.2727   -8.5271 C   0  0  0  0  0  0  0  0  0  0  0  0
   12.8549  -27.6891   -9.3583 C   0  0  0  0  0  0  0  0  0  0  0  0
    7.6568  -27.4594   -9.7902 C   0  0  0  0  0  0  0  0  0  0  0  0
    7.4882  -29.8067   -9.2435 C   0  0  0  0  0  0  0  0  0  0  0  0
    6.4515  -27.2192   -9.1304 C   0  0  0  0  0  0  0  0  0  0  0  0
    6.2830  -29.5665   -8.5837 C   0  0  0  0  0  0  0  0  0  0  0  0
   10.9811  -26.4279   -9.9066 C   0  0  0  0  0  0  0  0  0  0  0  0
   11.6286  -26.4896  -11.1210 C   0  0  0  0  0  0  0  0  0  0  0  0
   11.1284  -25.8432  -12.4193 C   0  0  0  0  0  0  0  0  0  0  0  0
    8.3234  -26.4449  -10.3746 N   0  5  0  0  0  0  0  0  0  0  0  0
   10.3825  -26.5530  -13.1441 O   0  5  0  0  0  0  0  0  0  0  0  0
   11.5109  -24.6638  -12.6383 O   0  0  0  0  0  0  0  0  0  0  0  0
    9.3241  -25.5828   -8.1562 O   0  0  0  0  0  0  0  0  0  0  0  0
    9.6752  -24.2526  -10.1894 O   0  0  0  0  0  0  0  0  0  0  0  0
    7.9860  -31.0489   -9.2994 F   0  0  0  0  0  0  0  0  0  0  0  0
    5.9373  -25.9817   -9.0657 F   0  0  0  0  0  0  0  0  0  0  0  0
    5.6228  -30.5782   -8.0049 F   0  0  0  0  0  0  0  0  0  0  0  0
   13.0867  -27.3826  -11.0270 S   0  0  0  0  0  0  0  0  0  0  0  0
    9.4211  -25.5718   -9.6143 S   0  0  0  0  0  0  0  0  0  0  0  0
   11.3703  -27.2058   -7.8550 H   0  0  0  0  0  0  0  0  0  0  0  0
    9.1134  -28.9607  -10.3567 H   0  0  0  0  0  0  0  0  0  0  0  0
    4.8256  -28.0871   -8.0142 H   0  0  0  0  0  0  0  0  0  0  0  0
   13.5795  -28.2694   -8.8047 H   0  0  0  0  0  0  0  0  0  0  0  0
  1  4  2  0  0  0  0
  1  9  1  0  0  0  0
  2  5  1  0  0  0  0
  2  6  2  0  0  0  0
  3  7  1  0  0  0  0
  3  8  2  0  0  0  0
  4 20  1  0  0  0  0
  5  7  2  0  0  0  0
  5 12  1  0  0  0  0
  6  8  1  0  0  0  0
  6 17  1  0  0  0  0
  7 18  1  0  0  0  0
  8 19  1  0  0  0  0
  9 10  2  0  0  0  0
  9 21  1  0  0  0  0
 10 11  1  0  0  0  0
 10 20  1  0  0  0  0
 11 13  1  0  0  0  0
 11 14  2  0  0  0  0
 12 21  1  0  0  0  0
 15 21  2  0  0  0  0
 16 21  2  0  0  0  0
  1 22  1  0  0  0  0
  2 23  1  0  0  0  0
  3 24  1  0  0  0  0
  4 25  1  0  0  0  0
M  CHG  2  12  -1  13  -1
M  END
> <Hybrid2>
-4.6393609046936035

> <Hybrid2>
-4.472368

$$$$
C61564216
  -OEChem-02152218503D

 28 29  0     0  0  0  0  0  0999 V2000
   11.0653  -27.1962  -12.3946 C   0  0  0  0  0  0  0  0  0  0  0  0
    9.6988  -26.9226  -12.0977 C   0  0  0  0  0  0  0  0  0  0  0  0
    5.2143  -28.9474   -8.3564 C   0  0  0  0  0  0  0  0  0  0  0  0
    7.9049  -28.9413   -9.0935 C   0  0  0  0  0  0  0  0  0  0  0  0
    5.9368  -27.7543   -8.3486 C   0  0  0  0  0  0  0  0  0  0  0  0
    7.2821  -27.7512   -8.7171 C   0  0  0  0  0  0  0  0  0  0  0  0
    5.8370  -30.1374   -8.7328 C   0  0  0  0  0  0  0  0  0  0  0  0
    7.1823  -30.1344   -9.1014 C   0  0  0  0  0  0  0  0  0  0  0  0
   11.9110  -26.7357  -11.4097 C   0  0  0  0  0  0  0  0  0  0  0  0
    9.5523  -26.2636  -10.8968 C   0  0  0  0  0  0  0  0  0  0  0  0
    5.2394  -26.5168   -7.9422 C   0  0  0  0  0  0  0  0  0  0  0  0
   13.3859  -26.8247  -11.3470 C   0  0  0  0  0  0  0  0  0  0  0  0
    8.0024  -26.6100   -8.7176 N   0  5  0  0  0  0  0  0  0  0  0  0
    5.2439  -26.1891   -6.6995 O   0  5  0  0  0  0  0  0  0  0  0  0
    4.6549  -25.8158   -8.8471 O   0  0  0  0  0  0  0  0  0  0  0  0
    8.4904  -24.2732   -9.6992 O   0  0  0  0  0  0  0  0  0  0  0  0
    7.0439  -25.7947  -10.9717 O   0  0  0  0  0  0  0  0  0  0  0  0
    5.1434  -31.2833   -8.7402 F   0  0  0  0  0  0  0  0  0  0  0  0
    7.7803  -31.2774   -9.4621 F   0  0  0  0  0  0  0  0  0  0  0  0
   11.0580  -25.9772  -10.1332 S   0  0  0  0  0  0  0  0  0  0  0  0
    8.1171  -25.6559   -9.9896 S   0  0  0  0  0  0  0  0  0  0  0  0
   11.4063  -27.7055  -13.2870 H   0  0  0  0  0  0  0  0  0  0  0  0
    8.8668  -27.1961  -12.7337 H   0  0  0  0  0  0  0  0  0  0  0  0
    4.1657  -28.9626   -8.0705 H   0  0  0  0  0  0  0  0  0  0  0  0
    8.9531  -28.9606   -9.3842 H   0  0  0  0  0  0  0  0  0  0  0  0
   13.8544  -25.9457  -11.8168 H   0  0  0  0  0  0  0  0  0  0  0  0
   13.7501  -26.8866  -10.3084 H   0  0  0  0  0  0  0  0  0  0  0  0
   13.7655  -27.7240  -11.8595 H   0  0  0  0  0  0  0  0  0  0  0  0
  1  2  1  0  0  0  0
  1  9  2  0  0  0  0
  2 10  2  0  0  0  0
  3  5  1  0  0  0  0
  3  7  2  0  0  0  0
  4  6  1  0  0  0  0
  4  8  2  0  0  0  0
  5  6  2  0  0  0  0
  5 11  1  0  0  0  0
  6 13  1  0  0  0  0
  7  8  1  0  0  0  0
  7 18  1  0  0  0  0
  8 19  1  0  0  0  0
  9 12  1  0  0  0  0
  9 20  1  0  0  0  0
 10 20  1  0  0  0  0
 10 21  1  0  0  0  0
 11 14  1  0  0  0  0
 11 15  2  0  0  0  0
 13 21  1  0  0  0  0
 16 21  2  0  0  0  0
 17 21  2  0  0  0  0
  1 22  1  0  0  0  0
  2 23  1  0  0  0  0
  3 24  1  0  0  0  0
  4 25  1  0  0  0  0
 12 26  1  0  0  0  0
 12 27  1  0  0  0  0
 12 28  1  0  0  0  0
M  CHG  2  13  -1  14  -1
M  END
> <Hybrid2>
-5.990777492523193

> <Hybrid2>
-5.990777

$$$$
C61564216
  -OEChem-02152218503D

 28 29  0     0  0  0  0  0  0999 V2000
   11.1359  -27.0801  -12.6296 C   0  0  0  0  0  0  0  0  0  0  0  0
    9.7676  -26.7733  -12.3770 C   0  0  0  0  0  0  0  0  0  0  0  0
    5.1494  -28.6082   -8.7008 C   0  0  0  0  0  0  0  0  0  0  0  0
    7.8579  -28.6721   -9.3659 C   0  0  0  0  0  0  0  0  0  0  0  0
    5.8940  -27.4287   -8.7073 C   0  0  0  0  0  0  0  0  0  0  0  0
    7.2482  -27.4607   -9.0399 C   0  0  0  0  0  0  0  0  0  0  0  0
    5.7591  -29.8197   -9.0268 C   0  0  0  0  0  0  0  0  0  0  0  0
    7.1134  -29.8516   -9.3594 C   0  0  0  0  0  0  0  0  0  0  0  0
   11.9642  -26.6071  -11.6358 C   0  0  0  0  0  0  0  0  0  0  0  0
    9.6022  -26.0776  -11.1994 C   0  0  0  0  0  0  0  0  0  0  0  0
    5.2098  -26.1676   -8.3547 C   0  0  0  0  0  0  0  0  0  0  0  0
   13.4350  -26.7211  -11.5314 C   0  0  0  0  0  0  0  0  0  0  0  0
    7.9898  -26.3332   -9.0534 N   0  5  0  0  0  0  0  0  0  0  0  0
    5.1880  -25.8045   -7.1220 O   0  5  0  0  0  0  0  0  0  0  0  0
    4.6625  -25.4823   -9.2942 O   0  0  0  0  0  0  0  0  0  0  0  0
    8.5473  -24.0347  -10.0870 O   0  0  0  0  0  0  0  0  0  0  0  0
    7.1060  -25.5656  -11.3542 O   0  0  0  0  0  0  0  0  0  0  0  0
    5.0443  -30.9524   -9.0204 F   0  0  0  0  0  0  0  0  0  0  0  0
    7.6988  -31.0152   -9.6718 F   0  0  0  0  0  0  0  0  0  0  0  0
   11.0927  -25.7969  -10.4044 S   0  0  0  0  0  0  0  0  0  0  0  0
    8.1557  -25.4182  -10.3482 S   0  0  0  0  0  0  0  0  0  0  0  0
   11.4904  -27.6209  -13.4979 H   0  0  0  0  0  0  0  0  0  0  0  0
    8.9474  -27.0498  -13.0268 H   0  0  0  0  0  0  0  0  0  0  0  0
    4.0936  -28.5961   -8.4425 H   0  0  0  0  0  0  0  0  0  0  0  0
    8.9128  -28.7188   -9.6279 H   0  0  0  0  0  0  0  0  0  0  0  0
   13.9322  -25.8646  -12.0131 H   0  0  0  0  0  0  0  0  0  0  0  0
   13.7708  -26.7598  -10.4821 H   0  0  0  0  0  0  0  0  0  0  0  0
   13.8107  -27.6414  -12.0081 H   0  0  0  0  0  0  0  0  0  0  0  0
  1  2  1  0  0  0  0
  1  9  2  0  0  0  0
  2 10  2  0  0  0  0
  3  5  1  0  0  0  0
  3  7  2  0  0  0  0
  4  6  1  0  0  0  0
  4  8  2  0  0  0  0
  5  6  2  0  0  0  0
  5 11  1  0  0  0  0
  6 13  1  0  0  0  0
  7  8  1  0  0  0  0
  7 18  1  0  0  0  0
  8 19  1  0  0  0  0
  9 12  1  0  0  0  0
  9 20  1  0  0  0  0
 10 20  1  0  0  0  0
 10 21  1  0  0  0  0
 11 14  1  0  0  0  0
 11 15  2  0  0  0  0
 13 21  1  0  0  0  0
 16 21  2  0  0  0  0
 17 21  2  0  0  0  0
  1 22  1  0  0  0  0
  2 23  1  0  0  0  0
  3 24  1  0  0  0  0
  4 25  1  0  0  0  0
 12 26  1  0  0  0  0
 12 27  1  0  0  0  0
 12 28  1  0  0  0  0
M  CHG  2  13  -1  14  -1
M  END
> <Hybrid2>
-5.990777492523193

> <Hybrid2>
-5.658865

$$$$
C63155685
  -OEChem-02152218503D

 38 39  0     1  0  0  0  0  0999 V2000
    5.7281  -28.2931   -9.4360 C   0  0  0  0  0  0  0  0  0  0  0  0
    7.4593  -29.9604   -9.1909 C   0  0  0  0  0  0  0  0  0  0  0  0
    6.6806  -27.2837   -9.2970 C   0  0  0  0  0  0  0  0  0  0  0  0
    6.1175  -29.6315   -9.3829 C   0  0  0  0  0  0  0  0  0  0  0  0
    8.4119  -28.9510   -9.0520 C   0  0  0  0  0  0  0  0  0  0  0  0
    8.0225  -27.6126   -9.1051 C   0  0  0  0  0  0  0  0  0  0  0  0
    6.2228  -25.8797   -9.3593 C   0  0  0  0  0  0  0  0  0  0  0  0
   13.6040  -26.4674  -12.9436 C   0  0  0  0  0  0  0  0  0  0  0  0
   12.1598  -26.5367  -12.5150 C   0  0  0  0  0  0  0  0  0  0  0  0
   14.2912  -27.2694  -11.8587 C   0  0  0  0  0  0  0  0  0  0  0  0
   12.2875  -26.4403  -11.0045 C   0  0  1  0  0  0  0  0  0  0  0  0
    5.0992  -30.7109   -9.5322 C   0  0  0  0  0  0  0  0  0  0  0  0
    9.8393  -29.3517   -8.8473 C   0  0  0  0  0  0  0  0  0  0  0  0
   11.1302  -27.0744  -10.2576 C   0  0  0  0  0  0  0  0  0  0  0  0
    8.9495  -26.6332   -8.9693 N   0  5  0  0  0  0  0  0  0  0  0  0
    4.9715  -25.6498   -9.5388 O   0  5  0  0  0  0  0  0  0  0  0  0
    7.0941  -24.9440   -9.2318 O   0  0  0  0  0  0  0  0  0  0  0  0
   10.3190  -24.6754   -9.9524 O   0  0  0  0  0  0  0  0  0  0  0  0
    9.1006  -26.1633  -11.5055 O   0  0  0  0  0  0  0  0  0  0  0  0
   13.5138  -27.1083  -10.6628 O   0  0  0  0  0  0  0  0  0  0  0  0
    9.7372  -25.9972  -10.1968 S   0  0  0  0  0  0  0  0  0  0  0  0
    4.6808  -28.0399   -9.5858 H   0  0  0  0  0  0  0  0  0  0  0  0
    7.7613  -31.0046   -9.1497 H   0  0  0  0  0  0  0  0  0  0  0  0
   13.7855  -26.8624  -13.9466 H   0  0  0  0  0  0  0  0  0  0  0  0
   13.9506  -25.4275  -12.9169 H   0  0  0  0  0  0  0  0  0  0  0  0
   11.5414  -25.7420  -12.9412 H   0  0  0  0  0  0  0  0  0  0  0  0
   11.7336  -27.5022  -12.8138 H   0  0  0  0  0  0  0  0  0  0  0  0
   14.3059  -28.3366  -12.1044 H   0  0  0  0  0  0  0  0  0  0  0  0
   15.3179  -26.9386  -11.6786 H   0  0  0  0  0  0  0  0  0  0  0  0
   12.3943  -25.3924  -10.6992 H   0  0  0  0  0  0  0  0  0  0  0  0
    4.9852  -30.9851  -10.5882 H   0  0  0  0  0  0  0  0  0  0  0  0
    5.3845  -31.6087   -8.9686 H   0  0  0  0  0  0  0  0  0  0  0  0
    4.1214  -30.3922   -9.1479 H   0  0  0  0  0  0  0  0  0  0  0  0
   10.3450  -29.4508   -9.8135 H   0  0  0  0  0  0  0  0  0  0  0  0
   10.3737  -28.6088   -8.2445 H   0  0  0  0  0  0  0  0  0  0  0  0
    9.9068  -30.3072   -8.3147 H   0  0  0  0  0  0  0  0  0  0  0  0
   11.4116  -27.3001   -9.2268 H   0  0  0  0  0  0  0  0  0  0  0  0
   10.8086  -27.9942  -10.7502 H   0  0  0  0  0  0  0  0  0  0  0  0
  1  3  1  0  0  0  0
  1  4  2  0  0  0  0
  2  4  1  0  0  0  0
  2  5  2  0  0  0  0
  3  6  2  0  0  0  0
  3  7  1  0  0  0  0
  4 12  1  0  0  0  0
  5  6  1  0  0  0  0
  5 13  1  0  0  0  0
  6 15  1  0  0  0  0
  7 16  1  0  0  0  0
  7 17  2  0  0  0  0
  8  9  1  0  0  0  0
  8 10  1  0  0  0  0
  9 11  1  0  0  0  0
 10 20  1  0  0  0  0
 11 14  1  0  0  0  0
 11 20  1  0  0  0  0
 14 21  1  0  0  0  0
 15 21  1  0  0  0  0
 18 21  2  0  0  0  0
 19 21  2  0  0  0  0
  1 22  1  0  0  0  0
  2 23  1  0  0  0  0
  8 24  1  0  0  0  0
  8 25  1  0  0  0  0
  9 26  1  0  0  0  0
  9 27  1  0  0  0  0
 10 28  1  0  0  0  0
 10 29  1  0  0  0  0
 11 30  1  0  0  0  0
 12 31  1  0  0  0  0
 12 32  1  0  0  0  0
 12 33  1  0  0  0  0
 13 34  1  0  0  0  0
 13 35  1  0  0  0  0
 13 36  1  0  0  0  0
 14 37  1  0  0  0  0
 14 38  1  0  0  0  0
M  CHG  2  15  -1  16  -1
M  END
> <Hybrid2>
-4.2762017250061035

> <Hybrid2>
-4.276202

$$$$
C63155685
  -OEChem-02152218503D

 38 39  0     1  0  0  0  0  0999 V2000
    6.3428  -25.9281   -9.5951 C   0  0  0  0  0  0  0  0  0  0  0  0
    7.5784  -27.8693   -8.8588 C   0  0  0  0  0  0  0  0  0  0  0  0
    7.5412  -25.2513   -9.8218 C   0  0  0  0  0  0  0  0  0  0  0  0
    6.3614  -27.2371   -9.1135 C   0  0  0  0  0  0  0  0  0  0  0  0
    8.7768  -27.1925   -9.0855 C   0  0  0  0  0  0  0  0  0  0  0  0
    8.7582  -25.8835   -9.5671 C   0  0  0  0  0  0  0  0  0  0  0  0
    7.4737  -23.8657  -10.3319 C   0  0  0  0  0  0  0  0  0  0  0  0
   15.1566  -27.2844  -12.1793 C   0  0  0  0  0  0  0  0  0  0  0  0
   13.8542  -27.8420  -11.6625 C   0  0  0  0  0  0  0  0  0  0  0  0
   15.1006  -25.8529  -11.6892 C   0  0  0  0  0  0  0  0  0  0  0  0
   12.9205  -26.6598  -11.8573 C   0  0  1  0  0  0  0  0  0  0  0  0
    5.0802  -27.9611   -8.8718 C   0  0  0  0  0  0  0  0  0  0  0  0
   10.0578  -27.9109   -8.7972 C   0  0  0  0  0  0  0  0  0  0  0  0
   11.7340  -26.6637  -10.9131 C   0  0  0  0  0  0  0  0  0  0  0  0
    9.9237  -25.2274   -9.7862 N   0  5  0  0  0  0  0  0  0  0  0  0
    6.3181  -23.3458  -10.5446 O   0  5  0  0  0  0  0  0  0  0  0  0
    8.5733  -23.2353  -10.5430 O   0  0  0  0  0  0  0  0  0  0  0  0
   11.6406  -24.1607  -11.3955 O   0  0  0  0  0  0  0  0  0  0  0  0
    9.8892  -25.6285  -12.3385 O   0  0  0  0  0  0  0  0  0  0  0  0
   13.7149  -25.4817  -11.6382 O   0  0  0  0  0  0  0  0  0  0  0  0
   10.6998  -25.2615  -11.1749 S   0  0  0  0  0  0  0  0  0  0  0  0
    5.3921  -25.4378   -9.7928 H   0  0  0  0  0  0  0  0  0  0  0  0
    7.5912  -28.8900   -8.4833 H   0  0  0  0  0  0  0  0  0  0  0  0
   16.0387  -27.8232  -11.8238 H   0  0  0  0  0  0  0  0  0  0  0  0
   15.1613  -27.3048  -13.2755 H   0  0  0  0  0  0  0  0  0  0  0  0
   13.5231  -28.7377  -12.1952 H   0  0  0  0  0  0  0  0  0  0  0  0
   13.9573  -28.0920  -10.5996 H   0  0  0  0  0  0  0  0  0  0  0  0
   15.5057  -25.7654  -10.6755 H   0  0  0  0  0  0  0  0  0  0  0  0
   15.6432  -25.1640  -12.3426 H   0  0  0  0  0  0  0  0  0  0  0  0
   12.5668  -26.6229  -12.8947 H   0  0  0  0  0  0  0  0  0  0  0  0
    4.7704  -28.5012   -9.7748 H   0  0  0  0  0  0  0  0  0  0  0  0
    5.1793  -28.6834   -8.0512 H   0  0  0  0  0  0  0  0  0  0  0  0
    4.2777  -27.2673   -8.5889 H   0  0  0  0  0  0  0  0  0  0  0  0
   10.3981  -28.4468   -9.6895 H   0  0  0  0  0  0  0  0  0  0  0  0
   10.8408  -27.2096   -8.4875 H   0  0  0  0  0  0  0  0  0  0  0  0
    9.9295  -28.6311   -7.9812 H   0  0  0  0  0  0  0  0  0  0  0  0
   12.0663  -26.6328   -9.8732 H   0  0  0  0  0  0  0  0  0  0  0  0
   11.1200  -27.5536  -11.0661 H   0  0  0  0  0  0  0  0  0  0  0  0
  1  3  1  0  0  0  0
  1  4  2  0  0  0  0
  2  4  1  0  0  0  0
  2  5  2  0  0  0  0
  3  6  2  0  0  0  0
  3  7  1  0  0  0  0
  4 12  1  0  0  0  0
  5  6  1  0  0  0  0
  5 13  1  0  0  0  0
  6 15  1  0  0  0  0
  7 16  1  0  0  0  0
  7 17  2  0  0  0  0
  8  9  1  0  0  0  0
  8 10  1  0  0  0  0
  9 11  1  0  0  0  0
 10 20  1  0  0  0  0
 11 14  1  0  0  0  0
 11 20  1  0  0  0  0
 14 21  1  0  0  0  0
 15 21  1  0  0  0  0
 18 21  2  0  0  0  0
 19 21  2  0  0  0  0
  1 22  1  0  0  0  0
  2 23  1  0  0  0  0
  8 24  1  0  0  0  0
  8 25  1  0  0  0  0
  9 26  1  0  0  0  0
  9 27  1  0  0  0  0
 10 28  1  0  0  0  0
 10 29  1  0  0  0  0
 11 30  1  0  0  0  0
 12 31  1  0  0  0  0
 12 32  1  0  0  0  0
 12 33  1  0  0  0  0
 13 34  1  0  0  0  0
 13 35  1  0  0  0  0
 13 36  1  0  0  0  0
 14 37  1  0  0  0  0
 14 38  1  0  0  0  0
M  CHG  2  15  -1  16  -1
M  END
> <Hybrid2>
-4.2762017250061035

> <Hybrid2>
-2.760269

$$$$
C63216460
  -OEChem-02152218503D

 26 27  0     0  0  0  0  0  0999 V2000
    4.5536  -28.1365  -10.4889 C   0  0  0  0  0  0  0  0  0  0  0  0
    5.4291  -27.1856  -11.0130 C   0  0  0  0  0  0  0  0  0  0  0  0
    6.5689  -27.0626   -8.8863 C   0  0  0  0  0  0  0  0  0  0  0  0
   12.0526  -27.2526   -9.3769 C   0  0  0  0  0  0  0  0  0  0  0  0
   10.8165  -27.1231   -8.7830 C   0  0  0  0  0  0  0  0  0  0  0  0
    4.6856  -28.5505   -9.1634 C   0  0  0  0  0  0  0  0  0  0  0  0
    5.6933  -28.0136   -8.3621 C   0  0  0  0  0  0  0  0  0  0  0  0
    6.4368  -26.6486  -10.2118 C   0  0  0  0  0  0  0  0  0  0  0  0
   11.1345  -26.7239  -11.4035 C   0  0  0  0  0  0  0  0  0  0  0  0
    9.8982  -26.5951  -10.8098 C   0  0  0  0  0  0  0  0  0  0  0  0
   11.3229  -26.5014  -12.8506 C   0  0  0  0  0  0  0  0  0  0  0  0
   12.2339  -27.0553  -10.6978 N   0  0  0  0  0  0  0  0  0  0  0  0
    9.7170  -26.7921   -9.4889 N   0  0  0  0  0  0  0  0  0  0  0  0
    8.7736  -26.2630  -11.4893 N   0  5  0  0  0  0  0  0  0  0  0  0
   12.5018  -26.6366  -13.3457 O   0  5  0  0  0  0  0  0  0  0  0  0
   10.3011  -26.1804  -13.5621 O   0  0  0  0  0  0  0  0  0  0  0  0
    6.7327  -24.7338  -11.8760 O   0  0  0  0  0  0  0  0  0  0  0  0
    7.8917  -24.6105   -9.7154 O   0  0  0  0  0  0  0  0  0  0  0  0
    3.8452  -29.4637   -8.6593 F   0  0  0  0  0  0  0  0  0  0  0  0
    5.8190  -28.4098   -7.0888 F   0  0  0  0  0  0  0  0  0  0  0  0
    7.5305  -25.4568  -10.8679 S   0  0  0  0  0  0  0  0  0  0  0  0
    3.7696  -28.5558  -11.1124 H   0  0  0  0  0  0  0  0  0  0  0  0
    5.3169  -26.8698  -12.0468 H   0  0  0  0  0  0  0  0  0  0  0  0
    7.3497  -26.6511   -8.2525 H   0  0  0  0  0  0  0  0  0  0  0  0
   12.9353  -27.5193   -8.8091 H   0  0  0  0  0  0  0  0  0  0  0  0
   10.6720  -27.2833   -7.7217 H   0  0  0  0  0  0  0  0  0  0  0  0
  1  2  1  0  0  0  0
  1  6  2  0  0  0  0
  2  8  2  0  0  0  0
  3  7  2  0  0  0  0
  3  8  1  0  0  0  0
  4  5  2  0  0  0  0
  4 12  1  0  0  0  0
  5 13  1  0  0  0  0
  6  7  1  0  0  0  0
  6 19  1  0  0  0  0
  7 20  1  0  0  0  0
  8 21  1  0  0  0  0
  9 10  1  0  0  0  0
  9 11  1  0  0  0  0
  9 12  2  0  0  0  0
 10 13  2  0  0  0  0
 10 14  1  0  0  0  0
 11 15  1  0  0  0  0
 11 16  2  0  0  0  0
 14 21  1  0  0  0  0
 17 21  2  0  0  0  0
 18 21  2  0  0  0  0
  1 22  1  0  0  0  0
  2 23  1  0  0  0  0
  3 24  1  0  0  0  0
  4 25  1  0  0  0  0
  5 26  1  0  0  0  0
M  CHG  2  14  -1  15  -1
M  END
> <Hybrid2>
-1.187265396118164

> <Hybrid2>
-1.187265

$$$$
C63216460
  -OEChem-02152218503D

 26 27  0     0  0  0  0  0  0999 V2000
    8.3372  -28.3888   -9.9696 C   0  0  0  0  0  0  0  0  0  0  0  0
    8.8758  -27.6788  -11.0426 C   0  0  0  0  0  0  0  0  0  0  0  0
    7.5870  -25.7373  -10.4050 C   0  0  0  0  0  0  0  0  0  0  0  0
   13.7067  -26.7549  -10.6567 C   0  0  0  0  0  0  0  0  0  0  0  0
   13.2351  -26.9478  -11.9364 C   0  0  0  0  0  0  0  0  0  0  0  0
    7.4234  -27.7730   -9.1143 C   0  0  0  0  0  0  0  0  0  0  0  0
    7.0483  -26.4473   -9.3320 C   0  0  0  0  0  0  0  0  0  0  0  0
    8.5008  -26.3531  -11.2603 C   0  0  0  0  0  0  0  0  0  0  0  0
   12.0552  -25.2188  -10.2794 C   0  0  0  0  0  0  0  0  0  0  0  0
   11.5839  -25.4111  -11.5594 C   0  0  0  0  0  0  0  0  0  0  0  0
   11.4082  -24.2687   -9.3532 C   0  0  0  0  0  0  0  0  0  0  0  0
   13.1252  -25.8870   -9.8051 N   0  0  0  0  0  0  0  0  0  0  0  0
   12.1652  -26.2793  -12.4108 N   0  0  0  0  0  0  0  0  0  0  0  0
   10.5113  -24.7567  -12.0673 N   0  5  0  0  0  0  0  0  0  0  0  0
   11.8149  -23.0490   -9.3395 O   0  5  0  0  0  0  0  0  0  0  0  0
   10.4623  -24.6963   -8.5944 O   0  0  0  0  0  0  0  0  0  0  0  0
    9.4224  -26.4884  -13.6386 O   0  0  0  0  0  0  0  0  0  0  0  0
    8.1141  -24.5152  -12.9894 O   0  0  0  0  0  0  0  0  0  0  0  0
    6.9057  -28.4542   -8.0836 F   0  0  0  0  0  0  0  0  0  0  0  0
    6.1696  -25.8565   -8.5117 F   0  0  0  0  0  0  0  0  0  0  0  0
    9.1737  -25.4661  -12.6049 S   0  0  0  0  0  0  0  0  0  0  0  0
    8.6295  -29.4206   -9.7988 H   0  0  0  0  0  0  0  0  0  0  0  0
    9.5866  -28.1685  -11.7030 H   0  0  0  0  0  0  0  0  0  0  0  0
    7.2872  -24.7052  -10.5649 H   0  0  0  0  0  0  0  0  0  0  0  0
   14.5668  -27.2920  -10.2766 H   0  0  0  0  0  0  0  0  0  0  0  0
   13.7041  -27.6445  -12.6202 H   0  0  0  0  0  0  0  0  0  0  0  0
  1  2  1  0  0  0  0
  1  6  2  0  0  0  0
  2  8  2  0  0  0  0
  3  7  2  0  0  0  0
  3  8  1  0  0  0  0
  4  5  2  0  0  0  0
  4 12  1  0  0  0  0
  5 13  1  0  0  0  0
  6  7  1  0  0  0  0
  6 19  1  0  0  0  0
  7 20  1  0  0  0  0
  8 21  1  0  0  0  0
  9 10  1  0  0  0  0
  9 11  1  0  0  0  0
  9 12  2  0  0  0  0
 10 13  2  0  0  0  0
 10 14  1  0  0  0  0
 11 15  1  0  0  0  0
 11 16  2  0  0  0  0
 14 21  1  0  0  0  0
 17 21  2  0  0  0  0
 18 21  2  0  0  0  0
  1 22  1  0  0  0  0
  2 23  1  0  0  0  0
  3 24  1  0  0  0  0
  4 25  1  0  0  0  0
  5 26  1  0  0  0  0
M  CHG  2  14  -1  15  -1
M  END
> <Hybrid2>
-1.187265396118164

> <Hybrid2>
-0.866085

$$$$
C03913655
  -OEChem-02152218503D

 28 29  0     1  0  0  0  0  0999 V2000
    6.8538  -27.8154   -8.6651 C   0  0  0  0  0  0  0  0  0  0  0  0
    8.0152  -29.2540  -10.2203 C   0  0  0  0  0  0  0  0  0  0  0  0
    7.7347  -26.7772   -8.9676 C   0  0  0  0  0  0  0  0  0  0  0  0
    8.8961  -28.2157  -10.5229 C   0  0  0  0  0  0  0  0  0  0  0  0
    6.9940  -29.0539   -9.2914 C   0  0  0  0  0  0  0  0  0  0  0  0
    8.7558  -26.9773   -9.8966 C   0  0  0  0  0  0  0  0  0  0  0  0
   11.2771  -26.2736  -13.3089 C   0  0  0  0  0  0  0  0  0  0  0  0
   10.5531  -26.2350  -11.0807 C   0  0  0  0  0  0  0  0  0  0  0  0
   14.3259  -27.4004  -11.3068 C   0  0  0  0  0  0  0  0  0  0  0  0
   12.7266  -26.3402  -12.8837 C   0  0  0  0  0  0  0  0  0  0  0  0
   12.8965  -27.3670  -11.7923 C   0  0  2  0  0  0  0  0  0  0  0  0
    6.0522  -30.1640   -8.9678 C   0  0  0  0  0  0  0  0  0  0  0  0
   10.3337  -26.0269  -12.3368 N   0  0  0  0  0  0  0  0  0  0  0  0
    9.6109  -25.9693  -10.1902 N   0  5  0  0  0  0  0  0  0  0  0  0
   14.7936  -26.2900  -10.9308 O   0  5  0  0  0  0  0  0  0  0  0  0
   10.9853  -26.3772  -14.4998 O   0  0  0  0  0  0  0  0  0  0  0  0
   14.8700  -28.5397  -11.3401 O   0  0  0  0  0  0  0  0  0  0  0  0
   11.9981  -26.8474  -10.3242 S   0  0  0  0  0  0  0  0  0  0  0  0
    6.0611  -27.6510   -7.9401 H   0  0  0  0  0  0  0  0  0  0  0  0
    8.1318  -30.2156  -10.7132 H   0  0  0  0  0  0  0  0  0  0  0  0
    7.6093  -25.8186   -8.4687 H   0  0  0  0  0  0  0  0  0  0  0  0
    9.6862  -28.3906  -11.2500 H   0  0  0  0  0  0  0  0  0  0  0  0
   13.3290  -26.6255  -13.7552 H   0  0  0  0  0  0  0  0  0  0  0  0
   13.0573  -25.3361  -12.5898 H   0  0  0  0  0  0  0  0  0  0  0  0
   12.5699  -28.3653  -12.0980 H   0  0  0  0  0  0  0  0  0  0  0  0
    5.1854  -30.1376   -9.6395 H   0  0  0  0  0  0  0  0  0  0  0  0
    6.5399  -31.1424   -9.0676 H   0  0  0  0  0  0  0  0  0  0  0  0
    5.6927  -30.0926   -7.9329 H   0  0  0  0  0  0  0  0  0  0  0  0
  1  3  2  0  0  0  0
  1  5  1  0  0  0  0
  2  4  1  0  0  0  0
  2  5  2  0  0  0  0
  3  6  1  0  0  0  0
  4  6  2  0  0  0  0
  5 12  1  0  0  0  0
  6 14  1  0  0  0  0
  7 10  1  0  0  0  0
  7 13  1  0  0  0  0
  7 16  2  0  0  0  0
  8 13  2  0  0  0  0
  8 14  1  0  0  0  0
  8 18  1  0  0  0  0
  9 11  1  0  0  0  0
  9 15  1  0  0  0  0
  9 17  2  0  0  0  0
 10 11  1  0  0  0  0
 11 18  1  0  0  0  0
  1 19  1  0  0  0  0
  2 20  1  0  0  0  0
  3 21  1  0  0  0  0
  4 22  1  0  0  0  0
 10 23  1  0  0  0  0
 10 24  1  0  0  0  0
 11 25  1  0  0  0  0
 12 26  1  0  0  0  0
 12 27  1  0  0  0  0
 12 28  1  0  0  0  0
M  CHG  2  14  -1  15  -1
M  END
> <Hybrid2>
-3.9847164154052734

> <Hybrid2>
-3.984716

$$$$
C03913655
  -OEChem-02152218503D

 28 29  0     1  0  0  0  0  0999 V2000
   13.2169  -27.0931  -11.9237 C   0  0  0  0  0  0  0  0  0  0  0  0
   13.2387  -27.6182   -9.5655 C   0  0  0  0  0  0  0  0  0  0  0  0
   11.8986  -26.6510  -11.8131 C   0  0  0  0  0  0  0  0  0  0  0  0
   11.9204  -27.1760   -9.4549 C   0  0  0  0  0  0  0  0  0  0  0  0
   13.8869  -27.5768  -10.7999 C   0  0  0  0  0  0  0  0  0  0  0  0
   11.2504  -26.6923  -10.5787 C   0  0  0  0  0  0  0  0  0  0  0  0
    8.3698  -29.3781   -9.8976 C   0  0  0  0  0  0  0  0  0  0  0  0
    9.0830  -27.1515  -10.0543 C   0  0  0  0  0  0  0  0  0  0  0  0
    5.7937  -27.4176   -7.8744 C   0  0  0  0  0  0  0  0  0  0  0  0
    7.4530  -29.0499   -8.7408 C   0  0  0  0  0  0  0  0  0  0  0  0
    6.6660  -27.8001   -9.0460 C   0  0  2  0  0  0  0  0  0  0  0  0
   15.2963  -28.0497  -10.9183 C   0  0  0  0  0  0  0  0  0  0  0  0
    9.2521  -28.4061  -10.3132 N   0  0  0  0  0  0  0  0  0  0  0  0
    9.9707  -26.2631  -10.4714 N   0  5  0  0  0  0  0  0  0  0  0  0
    6.3962  -27.2897   -6.7727 O   0  5  0  0  0  0  0  0  0  0  0  0
    8.3503  -30.5053  -10.3907 O   0  0  0  0  0  0  0  0  0  0  0  0
    4.5694  -27.2749   -8.1500 O   0  0  0  0  0  0  0  0  0  0  0  0
    7.7818  -26.3963   -9.1759 S   0  0  0  0  0  0  0  0  0  0  0  0
   13.7144  -27.0575  -12.8893 H   0  0  0  0  0  0  0  0  0  0  0  0
   13.7530  -27.9934   -8.6847 H   0  0  0  0  0  0  0  0  0  0  0  0
   11.3928  -26.2773  -12.7008 H   0  0  0  0  0  0  0  0  0  0  0  0
   11.4313  -27.2159   -8.4839 H   0  0  0  0  0  0  0  0  0  0  0  0
    6.7652  -29.8924   -8.5960 H   0  0  0  0  0  0  0  0  0  0  0  0
    8.0510  -28.9729   -7.8241 H   0  0  0  0  0  0  0  0  0  0  0  0
    6.0687  -27.8900   -9.9581 H   0  0  0  0  0  0  0  0  0  0  0  0
   15.9933  -27.2216  -10.7404 H   0  0  0  0  0  0  0  0  0  0  0  0
   15.5114  -28.8469  -10.1949 H   0  0  0  0  0  0  0  0  0  0  0  0
   15.4953  -28.4637  -11.9155 H   0  0  0  0  0  0  0  0  0  0  0  0
  1  3  2  0  0  0  0
  1  5  1  0  0  0  0
  2  4  1  0  0  0  0
  2  5  2  0  0  0  0
  3  6  1  0  0  0  0
  4  6  2  0  0  0  0
  5 12  1  0  0  0  0
  6 14  1  0  0  0  0
  7 10  1  0  0  0  0
  7 13  1  0  0  0  0
  7 16  2  0  0  0  0
  8 13  2  0  0  0  0
  8 14  1  0  0  0  0
  8 18  1  0  0  0  0
  9 11  1  0  0  0  0
  9 15  1  0  0  0  0
  9 17  2  0  0  0  0
 10 11  1  0  0  0  0
 11 18  1  0  0  0  0
  1 19  1  0  0  0  0
  2 20  1  0  0  0  0
  3 21  1  0  0  0  0
  4 22  1  0  0  0  0
 10 23  1  0  0  0  0
 10 24  1  0  0  0  0
 11 25  1  0  0  0  0
 12 26  1  0  0  0  0
 12 27  1  0  0  0  0
 12 28  1  0  0  0  0
M  CHG  2  14  -1  15  -1
M  END
> <Hybrid2>
-3.9847164154052734

> <Hybrid2>
-3.026246

$$$$
C04143908
  -OEChem-02152218503D

 37 39  0     1  0  0  0  0  0999 V2000
    7.8695  -25.4591   -9.8421 C   0  0  0  0  0  0  0  0  0  0  0  0
    7.5184  -26.8179   -9.5631 C   0  0  0  0  0  0  0  0  0  0  0  0
    6.3558  -27.2323   -8.8513 C   0  0  0  0  0  0  0  0  0  0  0  0
    6.2806  -28.6029   -8.7362 C   0  0  0  0  0  0  0  0  0  0  0  0
    8.2879  -27.8878   -9.9647 C   0  0  0  0  0  0  0  0  0  0  0  0
   12.3977  -27.3680   -9.9255 C   0  0  0  0  0  0  0  0  0  0  0  0
   13.2170  -26.3772  -10.3044 C   0  0  0  0  0  0  0  0  0  0  0  0
    9.9652  -27.0595  -11.6454 C   0  0  0  0  0  0  0  0  0  0  0  0
   11.8028  -24.8798  -12.4418 C   0  0  0  0  0  0  0  0  0  0  0  0
   13.5541  -28.1212  -11.7737 C   0  0  0  0  0  0  0  0  0  0  0  0
   12.1645  -28.2444  -11.1350 C   0  0  2  0  0  0  0  0  0  0  0  0
   13.5262  -26.5873  -11.7694 C   0  0  1  0  0  0  0  0  0  0  0  0
   11.3031  -27.4789  -12.1734 C   0  0  2  0  0  0  0  0  0  0  0  0
   12.2515  -26.3200  -12.6142 C   0  0  1  0  0  0  0  0  0  0  0  0
    5.3390  -26.3032   -8.2952 C   0  0  0  0  0  0  0  0  0  0  0  0
    5.2422  -29.4251   -8.0762 C   0  0  0  0  0  0  0  0  0  0  0  0
    8.1542  -24.3571  -10.0685 N   0  0  0  0  0  0  0  0  0  0  0  0
    9.5046  -27.9506  -10.6846 N   0  0  0  0  0  0  0  0  0  0  0  0
   11.4796  -24.5529  -11.2662 O   0  5  0  0  0  0  0  0  0  0  0  0
    9.4169  -26.0433  -12.0598 O   0  0  0  0  0  0  0  0  0  0  0  0
   11.8108  -24.1921  -13.5011 O   0  0  0  0  0  0  0  0  0  0  0  0
    7.6082  -29.3842   -9.4842 S   0  0  0  0  0  0  0  0  0  0  0  0
   11.9470  -27.4911   -8.9538 H   0  0  0  0  0  0  0  0  0  0  0  0
   13.5493  -25.5518   -9.6955 H   0  0  0  0  0  0  0  0  0  0  0  0
   14.3585  -28.5465  -11.1596 H   0  0  0  0  0  0  0  0  0  0  0  0
   13.6099  -28.5518  -12.7801 H   0  0  0  0  0  0  0  0  0  0  0  0
   11.8475  -29.2631  -10.9072 H   0  0  0  0  0  0  0  0  0  0  0  0
   14.4427  -26.1094  -12.1187 H   0  0  0  0  0  0  0  0  0  0  0  0
   11.1135  -28.1293  -13.0369 H   0  0  0  0  0  0  0  0  0  0  0  0
   12.4966  -26.4530  -13.6762 H   0  0  0  0  0  0  0  0  0  0  0  0
    4.5489  -26.1059   -9.0332 H   0  0  0  0  0  0  0  0  0  0  0  0
    4.8680  -26.7137   -7.3900 H   0  0  0  0  0  0  0  0  0  0  0  0
    5.7861  -25.3406   -8.0057 H   0  0  0  0  0  0  0  0  0  0  0  0
    4.4409  -29.6891   -8.7836 H   0  0  0  0  0  0  0  0  0  0  0  0
    5.6574  -30.3618   -7.6704 H   0  0  0  0  0  0  0  0  0  0  0  0
    4.7819  -28.8981   -7.2247 H   0  0  0  0  0  0  0  0  0  0  0  0
   10.1018  -28.7444  -10.4627 H   0  0  0  0  0  0  0  0  0  0  0  0
  1  2  1  0  0  0  0
  1 17  3  0  0  0  0
  2  3  1  0  0  0  0
  2  5  2  0  0  0  0
  3  4  2  0  0  0  0
  3 15  1  0  0  0  0
  4 16  1  0  0  0  0
  4 22  1  0  0  0  0
  5 18  1  0  0  0  0
  5 22  1  0  0  0  0
  6  7  2  0  0  0  0
  6 11  1  0  0  0  0
  7 12  1  0  0  0  0
  8 13  1  0  0  0  0
  8 18  1  0  0  0  0
  8 20  2  0  0  0  0
  9 14  1  0  0  0  0
  9 19  1  0  0  0  0
  9 21  2  0  0  0  0
 10 11  1  0  0  0  0
 10 12  1  0  0  0  0
 11 13  1  0  0  0  0
 12 14  1  0  0  0  0
 13 14  1  0  0  0  0
  6 23  1  0  0  0  0
  7 24  1  0  0  0  0
 10 25  1  0  0  0  0
 10 26  1  0  0  0  0
 11 27  1  0  0  0  0
 12 28  1  0  0  0  0
 13 29  1  0  0  0  0
 14 30  1  0  0  0  0
 15 31  1  0  0  0  0
 15 32  1  0  0  0  0
 15 33  1  0  0  0  0
 16 34  1  0  0  0  0
 16 35  1  0  0  0  0
 16 36  1  0  0  0  0
 18 37  1  0  0  0  0
M  CHG  1  19  -1
M  END
> <Hybrid2>
-4.507123947143555

> <Hybrid2>
-4.507124

$$$$
C04143908
  -OEChem-02152218503D

 37 39  0     1  0  0  0  0  0999 V2000
    7.4329  -30.1159   -8.8361 C   0  0  0  0  0  0  0  0  0  0  0  0
    7.1753  -28.7290   -9.0760 C   0  0  0  0  0  0  0  0  0  0  0  0
    5.9426  -28.0677   -8.8051 C   0  0  0  0  0  0  0  0  0  0  0  0
    5.9882  -26.7316   -9.1375 C   0  0  0  0  0  0  0  0  0  0  0  0
    8.1161  -27.8731   -9.6054 C   0  0  0  0  0  0  0  0  0  0  0  0
   13.1012  -25.7027  -10.1884 C   0  0  0  0  0  0  0  0  0  0  0  0
   13.3247  -25.5634  -11.5026 C   0  0  0  0  0  0  0  0  0  0  0  0
   10.4997  -27.1748   -9.9989 C   0  0  0  0  0  0  0  0  0  0  0  0
   11.0296  -26.8341  -12.8912 C   0  0  0  0  0  0  0  0  0  0  0  0
   14.1004  -27.6520  -10.9109 C   0  0  0  0  0  0  0  0  0  0  0  0
   13.0475  -27.1852   -9.8971 C   0  0  2  0  0  0  0  0  0  0  0  0
   13.4137  -26.9531  -12.0915 C   0  0  1  0  0  0  0  0  0  0  0  0
   11.7623  -27.7910  -10.5195 C   0  0  2  0  0  0  0  0  0  0  0  0
   12.0154  -27.6263  -12.0511 C   0  0  1  0  0  0  0  0  0  0  0  0
    4.7443  -28.7322   -8.2319 C   0  0  0  0  0  0  0  0  0  0  0  0
    4.9286  -25.7059   -9.0139 C   0  0  0  0  0  0  0  0  0  0  0  0
    7.6420  -31.2407   -8.6415 N   0  0  0  0  0  0  0  0  0  0  0  0
    9.4527  -28.0874  -10.0179 N   0  0  0  0  0  0  0  0  0  0  0  0
   10.8235  -25.6496  -12.5068 O   0  5  0  0  0  0  0  0  0  0  0  0
   10.4797  -26.0079   -9.6209 O   0  0  0  0  0  0  0  0  0  0  0  0
   10.5409  -27.4651  -13.8700 O   0  0  0  0  0  0  0  0  0  0  0  0
    7.5125  -26.2795   -9.7736 S   0  0  0  0  0  0  0  0  0  0  0  0
   12.9388  -24.9081   -9.4778 H   0  0  0  0  0  0  0  0  0  0  0  0
   13.3752  -24.6356  -12.0496 H   0  0  0  0  0  0  0  0  0  0  0  0
   15.1088  -27.2715  -10.7028 H   0  0  0  0  0  0  0  0  0  0  0  0
   14.1471  -28.7418  -11.0187 H   0  0  0  0  0  0  0  0  0  0  0  0
   13.2508  -27.4550   -8.8599 H   0  0  0  0  0  0  0  0  0  0  0  0
   13.9502  -27.0169  -13.0393 H   0  0  0  0  0  0  0  0  0  0  0  0
   11.7142  -28.8614  -10.2815 H   0  0  0  0  0  0  0  0  0  0  0  0
   12.0901  -28.6243  -12.5028 H   0  0  0  0  0  0  0  0  0  0  0  0
    4.7601  -28.6812   -7.1342 H   0  0  0  0  0  0  0  0  0  0  0  0
    3.8140  -28.2623   -8.5837 H   0  0  0  0  0  0  0  0  0  0  0  0
    4.6898  -29.7911   -8.5253 H   0  0  0  0  0  0  0  0  0  0  0  0
    4.9751  -25.2085   -8.0329 H   0  0  0  0  0  0  0  0  0  0  0  0
    5.0166  -24.9299   -9.7913 H   0  0  0  0  0  0  0  0  0  0  0  0
    3.9221  -26.1408   -9.1256 H   0  0  0  0  0  0  0  0  0  0  0  0
    9.6570  -29.0220  -10.3656 H   0  0  0  0  0  0  0  0  0  0  0  0
  1  2  1  0  0  0  0
  1 17  3  0  0  0  0
  2  3  1  0  0  0  0
  2  5  2  0  0  0  0
  3  4  2  0  0  0  0
  3 15  1  0  0  0  0
  4 16  1  0  0  0  0
  4 22  1  0  0  0  0
  5 18  1  0  0  0  0
  5 22  1  0  0  0  0
  6  7  2  0  0  0  0
  6 11  1  0  0  0  0
  7 12  1  0  0  0  0
  8 13  1  0  0  0  0
  8 18  1  0  0  0  0
  8 20  2  0  0  0  0
  9 14  1  0  0  0  0
  9 19  1  0  0  0  0
  9 21  2  0  0  0  0
 10 11  1  0  0  0  0
 10 12  1  0  0  0  0
 11 13  1  0  0  0  0
 12 14  1  0  0  0  0
 13 14  1  0  0  0  0
  6 23  1  0  0  0  0
  7 24  1  0  0  0  0
 10 25  1  0  0  0  0
 10 26  1  0  0  0  0
 11 27  1  0  0  0  0
 12 28  1  0  0  0  0
 13 29  1  0  0  0  0
 14 30  1  0  0  0  0
 15 31  1  0  0  0  0
 15 32  1  0  0  0  0
 15 33  1  0  0  0  0
 16 34  1  0  0  0  0
 16 35  1  0  0  0  0
 16 36  1  0  0  0  0
 18 37  1  0  0  0  0
M  CHG  1  19  -1
M  END
> <Hybrid2>
-4.507123947143555

> <Hybrid2>
-3.306168

$$$$
C04181302
  -OEChem-02152218503D

 34 36  0     1  0  0  0  0  0999 V2000
   15.5695  -26.3128  -12.2300 C   0  0  0  0  0  0  0  0  0  0  0  0
   15.2553  -26.3241  -13.5845 C   0  0  0  0  0  0  0  0  0  0  0  0
   14.5703  -26.4845  -11.2675 C   0  0  0  0  0  0  0  0  0  0  0  0
   13.9382  -26.5068  -14.0133 C   0  0  0  0  0  0  0  0  0  0  0  0
   13.2312  -26.6710  -11.6737 C   0  0  0  0  0  0  0  0  0  0  0  0
   12.9396  -26.6786  -13.0411 C   0  0  0  0  0  0  0  0  0  0  0  0
   11.0520  -26.9944  -11.5572 C   0  0  0  0  0  0  0  0  0  0  0  0
    5.2756  -28.0543   -8.4788 C   0  0  0  0  0  0  0  0  0  0  0  0
    6.1471  -29.0649   -8.5979 C   0  0  0  0  0  0  0  0  0  0  0  0
    9.3027  -27.3020   -9.7768 C   0  0  0  0  0  0  0  0  0  0  0  0
    7.2955  -25.0824   -9.6496 C   0  0  0  0  0  0  0  0  0  0  0  0
    5.6376  -26.6278   -8.7712 C   0  0  0  0  0  0  0  0  0  0  0  0
    7.5633  -28.8910   -9.0599 C   0  0  0  0  0  0  0  0  0  0  0  0
    7.8192  -27.5191   -9.7053 C   0  0  1  0  0  0  0  0  0  0  0  0
    7.1467  -26.4016   -8.9081 C   0  0  1  0  0  0  0  0  0  0  0  0
   12.1399  -26.8528  -10.8367 N   0  0  0  0  0  0  0  0  0  0  0  0
    9.7310  -27.2027  -11.0945 N   0  0  0  0  0  0  0  0  0  0  0  0
    6.3367  -24.2737   -9.5085 O   0  5  0  0  0  0  0  0  0  0  0  0
    9.9770  -27.2299   -8.7545 O   0  0  0  0  0  0  0  0  0  0  0  0
    8.3634  -24.9657  -10.3138 O   0  0  0  0  0  0  0  0  0  0  0  0
   11.2462  -26.9218  -13.2551 S   0  0  0  0  0  0  0  0  0  0  0  0
    5.6698  -30.6838   -8.2277 Cl  0  0  0  0  0  0  0  0  0  0  0  0
   16.5995  -26.1698  -11.9152 H   0  0  0  0  0  0  0  0  0  0  0  0
   16.0435  -26.1886  -14.3208 H   0  0  0  0  0  0  0  0  0  0  0  0
   14.8269  -26.4731  -10.2119 H   0  0  0  0  0  0  0  0  0  0  0  0
   13.7004  -26.5158  -15.0726 H   0  0  0  0  0  0  0  0  0  0  0  0
    4.2567  -28.2423   -8.1596 H   0  0  0  0  0  0  0  0  0  0  0  0
    5.1221  -26.3131   -9.6792 H   0  0  0  0  0  0  0  0  0  0  0  0
    5.2584  -26.0163   -7.9510 H   0  0  0  0  0  0  0  0  0  0  0  0
    8.2495  -29.0315   -8.2193 H   0  0  0  0  0  0  0  0  0  0  0  0
    7.7816  -29.6754   -9.7910 H   0  0  0  0  0  0  0  0  0  0  0  0
    7.4560  -27.5461  -10.7234 H   0  0  0  0  0  0  0  0  0  0  0  0
    7.5791  -26.2791   -7.9292 H   0  0  0  0  0  0  0  0  0  0  0  0
    9.0229  -27.2870  -11.8208 H   0  0  0  0  0  0  0  0  0  0  0  0
  1  2  1  0  0  0  0
  1  3  2  0  0  0  0
  2  4  2  0  0  0  0
  3  5  1  0  0  0  0
  4  6  1  0  0  0  0
  5  6  2  0  0  0  0
  5 16  1  0  0  0  0
  6 21  1  0  0  0  0
  7 16  2  0  0  0  0
  7 17  1  0  0  0  0
  7 21  1  0  0  0  0
  8  9  2  0  0  0  0
  8 12  1  0  0  0  0
  9 13  1  0  0  0  0
  9 22  1  0  0  0  0
 10 14  1  0  0  0  0
 10 17  1  0  0  0  0
 10 19  2  0  0  0  0
 11 15  1  0  0  0  0
 11 18  1  0  0  0  0
 11 20  2  0  0  0  0
 12 15  1  0  0  0  0
 13 14  1  0  0  0  0
 14 15  1  0  0  0  0
  1 23  1  0  0  0  0
  2 24  1  0  0  0  0
  3 25  1  0  0  0  0
  4 26  1  0  0  0  0
  8 27  1  0  0  0  0
 12 28  1  0  0  0  0
 12 29  1  0  0  0  0
 13 30  1  0  0  0  0
 13 31  1  0  0  0  0
 14 32  1  0  0  0  0
 15 33  1  0  0  0  0
 17 34  1  0  0  0  0
M  CHG  1  18  -1
M  END
> <Hybrid2>
-3.6209962368011475

> <Hybrid2>
-3.620996

$$$$
C04181302
  -OEChem-02152218503D

 34 36  0     1  0  0  0  0  0999 V2000
    4.9396  -27.4826   -7.9237 C   0  0  0  0  0  0  0  0  0  0  0  0
    5.0650  -28.8614   -7.7937 C   0  0  0  0  0  0  0  0  0  0  0  0
    5.9542  -26.7304   -8.5228 C   0  0  0  0  0  0  0  0  0  0  0  0
    6.2040  -29.5244   -8.2575 C   0  0  0  0  0  0  0  0  0  0  0  0
    7.1157  -27.3755   -9.0000 C   0  0  0  0  0  0  0  0  0  0  0  0
    7.2192  -28.7626   -8.8581 C   0  0  0  0  0  0  0  0  0  0  0  0
    9.0968  -27.6673   -9.9258 C   0  0  0  0  0  0  0  0  0  0  0  0
   14.5917  -27.8969  -12.4209 C   0  0  0  0  0  0  0  0  0  0  0  0
   14.4367  -27.6031  -11.1229 C   0  0  0  0  0  0  0  0  0  0  0  0
   10.8828  -26.2579  -10.9973 C   0  0  0  0  0  0  0  0  0  0  0  0
   11.3057  -26.7797  -13.9163 C   0  0  0  0  0  0  0  0  0  0  0  0
   13.5078  -27.6907  -13.4377 C   0  0  0  0  0  0  0  0  0  0  0  0
   13.1832  -27.0135  -10.5481 C   0  0  0  0  0  0  0  0  0  0  0  0
   12.2314  -26.4638  -11.6233 C   0  0  1  0  0  0  0  0  0  0  0  0
   12.1354  -27.4180  -12.8136 C   0  0  1  0  0  0  0  0  0  0  0  0
    8.1988  -26.7626   -9.6130 N   0  0  0  0  0  0  0  0  0  0  0  0
   10.3429  -27.4623  -10.5644 N   0  0  0  0  0  0  0  0  0  0  0  0
   11.7284  -25.6657  -14.3328 O   0  5  0  0  0  0  0  0  0  0  0  0
   10.3933  -25.1361  -10.9148 O   0  0  0  0  0  0  0  0  0  0  0  0
   10.2964  -27.4491  -14.2747 O   0  0  0  0  0  0  0  0  0  0  0  0
    8.7232  -29.2862   -9.5188 S   0  0  0  0  0  0  0  0  0  0  0  0
   15.7205  -27.8820  -10.0004 Cl  0  0  0  0  0  0  0  0  0  0  0  0
    4.0463  -26.9843   -7.5574 H   0  0  0  0  0  0  0  0  0  0  0  0
    4.2675  -29.4324   -7.3249 H   0  0  0  0  0  0  0  0  0  0  0  0
    5.8461  -25.6537   -8.6184 H   0  0  0  0  0  0  0  0  0  0  0  0
    6.2945  -30.6013   -8.1538 H   0  0  0  0  0  0  0  0  0  0  0  0
   15.5291  -28.3026  -12.7841 H   0  0  0  0  0  0  0  0  0  0  0  0
   13.7953  -26.8708  -14.0969 H   0  0  0  0  0  0  0  0  0  0  0  0
   13.4496  -28.5946  -14.0460 H   0  0  0  0  0  0  0  0  0  0  0  0
   12.6597  -27.7636   -9.9478 H   0  0  0  0  0  0  0  0  0  0  0  0
   13.4678  -26.1999   -9.8739 H   0  0  0  0  0  0  0  0  0  0  0  0
   12.5873  -25.4900  -11.9307 H   0  0  0  0  0  0  0  0  0  0  0  0
   11.6705  -28.3539  -12.5521 H   0  0  0  0  0  0  0  0  0  0  0  0
   10.8976  -28.3019  -10.7174 H   0  0  0  0  0  0  0  0  0  0  0  0
  1  2  1  0  0  0  0
  1  3  2  0  0  0  0
  2  4  2  0  0  0  0
  3  5  1  0  0  0  0
  4  6  1  0  0  0  0
  5  6  2  0  0  0  0
  5 16  1  0  0  0  0
  6 21  1  0  0  0  0
  7 16  2  0  0  0  0
  7 17  1  0  0  0  0
  7 21  1  0  0  0  0
  8  9  2  0  0  0  0
  8 12  1  0  0  0  0
  9 13  1  0  0  0  0
  9 22  1  0  0  0  0
 10 14  1  0  0  0  0
 10 17  1  0  0  0  0
 10 19  2  0  0  0  0
 11 15  1  0  0  0  0
 11 18  1  0  0  0  0
 11 20  2  0  0  0  0
 12 15  1  0  0  0  0
 13 14  1  0  0  0  0
 14 15  1  0  0  0  0
  1 23  1  0  0  0  0
  2 24  1  0  0  0  0
  3 25  1  0  0  0  0
  4 26  1  0  0  0  0
  8 27  1  0  0  0  0
 12 28  1  0  0  0  0
 12 29  1  0  0  0  0
 13 30  1  0  0  0  0
 13 31  1  0  0  0  0
 14 32  1  0  0  0  0
 15 33  1  0  0  0  0
 17 34  1  0  0  0  0
M  CHG  1  18  -1
M  END
> <Hybrid2>
-3.6209962368011475

> <Hybrid2>
-2.920931

$$$$
C05015039
  -OEChem-02152218503D

 46 49  0     1  0  0  0  0  0999 V2000
   14.8817  -29.4478  -10.3539 C   0  0  0  0  0  0  0  0  0  0  0  0
    5.2880  -27.6466   -7.8619 C   0  0  0  0  0  0  0  0  0  0  0  0
    5.7175  -26.4933   -8.5169 C   0  0  0  0  0  0  0  0  0  0  0  0
   11.2872  -26.8872  -12.4369 C   0  0  0  0  0  0  0  0  0  0  0  0
   11.4161  -26.9775  -10.0260 C   0  0  0  0  0  0  0  0  0  0  0  0
   12.6702  -27.0491  -12.5169 C   0  0  0  0  0  0  0  0  0  0  0  0
   12.7992  -27.1394  -10.1060 C   0  0  0  0  0  0  0  0  0  0  0  0
    5.9468  -28.8558   -8.0705 C   0  0  0  0  0  0  0  0  0  0  0  0
   10.6601  -26.8514  -11.1914 C   0  0  0  0  0  0  0  0  0  0  0  0
    6.8218  -26.5427   -9.3754 C   0  0  0  0  0  0  0  0  0  0  0  0
    7.0367  -28.9198   -8.9398 C   0  0  0  0  0  0  0  0  0  0  0  0
    7.4843  -27.7754   -9.6141 C   0  0  0  0  0  0  0  0  0  0  0  0
   13.4263  -27.1752  -11.3515 C   0  0  0  0  0  0  0  0  0  0  0  0
    8.2077  -23.2183  -10.0500 C   0  0  0  0  0  0  0  0  0  0  0  0
    7.1505  -23.9500   -9.6636 C   0  0  0  0  0  0  0  0  0  0  0  0
    5.4681  -30.0565   -7.3600 C   0  0  0  0  0  0  0  0  0  0  0  0
    9.2228  -24.0534  -10.7807 C   0  0  0  0  0  0  0  0  0  0  0  0
    7.2875  -25.3511  -10.1652 C   0  0  1  0  0  0  0  0  0  0  0  0
    9.1800  -26.6788  -11.1055 C   0  0  2  0  0  0  0  0  0  0  0  0
    8.8183  -25.4387  -10.2832 C   0  0  1  0  0  0  0  0  0  0  0  0
    7.7264  -30.2365   -9.1389 C   0  0  0  0  0  0  0  0  0  0  0  0
   15.4030  -28.0815  -10.3886 C   0  0  0  0  0  0  0  0  0  0  0  0
   14.4688  -30.5317  -10.3255 N   0  0  0  0  0  0  0  0  0  0  0  0
    8.5997  -27.8593  -10.4507 N   0  0  0  0  0  0  0  0  0  0  0  0
    4.5703  -30.7877   -7.9204 O   0  5  0  0  0  0  0  0  0  0  0  0
    5.9655  -30.3291   -6.2054 O   0  0  0  0  0  0  0  0  0  0  0  0
   14.7757  -27.3345  -11.4299 O   0  0  0  0  0  0  0  0  0  0  0  0
    4.4324  -27.5906   -7.1936 H   0  0  0  0  0  0  0  0  0  0  0  0
    5.1776  -25.5651   -8.3540 H   0  0  0  0  0  0  0  0  0  0  0  0
   10.7060  -26.7897  -13.3499 H   0  0  0  0  0  0  0  0  0  0  0  0
   10.9360  -26.9506   -9.0512 H   0  0  0  0  0  0  0  0  0  0  0  0
   13.1530  -27.0766  -13.4902 H   0  0  0  0  0  0  0  0  0  0  0  0
   13.3824  -27.2374   -9.1947 H   0  0  0  0  0  0  0  0  0  0  0  0
    8.3143  -22.1581   -9.8727 H   0  0  0  0  0  0  0  0  0  0  0  0
    6.2884  -23.5454   -9.1544 H   0  0  0  0  0  0  0  0  0  0  0  0
    9.1191  -23.9370  -11.8639 H   0  0  0  0  0  0  0  0  0  0  0  0
   10.2439  -23.8022  -10.4797 H   0  0  0  0  0  0  0  0  0  0  0  0
    6.8013  -25.4049  -11.1506 H   0  0  0  0  0  0  0  0  0  0  0  0
    8.7809  -26.6001  -12.1230 H   0  0  0  0  0  0  0  0  0  0  0  0
    9.2684  -25.5552   -9.2790 H   0  0  0  0  0  0  0  0  0  0  0  0
    7.2635  -30.7792   -9.9685 H   0  0  0  0  0  0  0  0  0  0  0  0
    8.7889  -30.0912   -9.3591 H   0  0  0  0  0  0  0  0  0  0  0  0
    7.6637  -30.8505   -8.2345 H   0  0  0  0  0  0  0  0  0  0  0  0
   15.2049  -27.5697   -9.4423 H   0  0  0  0  0  0  0  0  0  0  0  0
   16.4840  -28.0723  -10.5576 H   0  0  0  0  0  0  0  0  0  0  0  0
    8.9422  -28.7744  -10.7195 H   0  0  0  0  0  0  0  0  0  0  0  0
  1 22  1  0  0  0  0
  1 23  3  0  0  0  0
  2  3  1  0  0  0  0
  2  8  2  0  0  0  0
  3 10  2  0  0  0  0
  4  6  2  0  0  0  0
  4  9  1  0  0  0  0
  5  7  1  0  0  0  0
  5  9  2  0  0  0  0
  6 13  1  0  0  0  0
  7 13  2  0  0  0  0
  8 11  1  0  0  0  0
  8 16  1  0  0  0  0
  9 19  1  0  0  0  0
 10 12  1  0  0  0  0
 10 18  1  0  0  0  0
 11 12  2  0  0  0  0
 11 21  1  0  0  0  0
 12 24  1  0  0  0  0
 13 27  1  0  0  0  0
 14 15  2  0  0  0  0
 14 17  1  0  0  0  0
 15 18  1  0  0  0  0
 16 25  1  0  0  0  0
 16 26  2  0  0  0  0
 17 20  1  0  0  0  0
 18 20  1  0  0  0  0
 19 20  1  0  0  0  0
 19 24  1  0  0  0  0
 22 27  1  0  0  0  0
  2 28  1  0  0  0  0
  3 29  1  0  0  0  0
  4 30  1  0  0  0  0
  5 31  1  0  0  0  0
  6 32  1  0  0  0  0
  7 33  1  0  0  0  0
 14 34  1  0  0  0  0
 15 35  1  0  0  0  0
 17 36  1  0  0  0  0
 17 37  1  0  0  0  0
 18 38  1  0  0  0  0
 19 39  1  0  0  0  0
 20 40  1  0  0  0  0
 21 41  1  0  0  0  0
 21 42  1  0  0  0  0
 21 43  1  0  0  0  0
 22 44  1  0  0  0  0
 22 45  1  0  0  0  0
 24 46  1  0  0  0  0
M  CHG  1  25  -1
M  END
> <Hybrid2>
-4.660158634185791

> <Hybrid2>
-4.660159

$$$$
C05015039
  -OEChem-02152218503D

 46 49  0     1  0  0  0  0  0999 V2000
    3.5168  -30.2475   -9.4624 C   0  0  0  0  0  0  0  0  0  0  0  0
   12.8517  -26.1754  -12.2524 C   0  0  0  0  0  0  0  0  0  0  0  0
   11.6315  -25.5051  -12.3254 C   0  0  0  0  0  0  0  0  0  0  0  0
    6.8001  -27.0830   -7.7746 C   0  0  0  0  0  0  0  0  0  0  0  0
    7.4119  -28.5921   -9.5594 C   0  0  0  0  0  0  0  0  0  0  0  0
    5.8810  -28.0182   -7.2989 C   0  0  0  0  0  0  0  0  0  0  0  0
    6.4928  -29.5274   -9.0836 C   0  0  0  0  0  0  0  0  0  0  0  0
   13.0882  -27.0877  -11.2270 C   0  0  0  0  0  0  0  0  0  0  0  0
    7.5655  -27.3699   -8.9049 C   0  0  0  0  0  0  0  0  0  0  0  0
   10.6334  -25.7571  -11.3771 C   0  0  0  0  0  0  0  0  0  0  0  0
   12.1070  -27.3314  -10.2649 C   0  0  0  0  0  0  0  0  0  0  0  0
   10.8742  -26.6663  -10.3136 C   0  0  0  0  0  0  0  0  0  0  0  0
    5.7274  -29.2404   -7.9533 C   0  0  0  0  0  0  0  0  0  0  0  0
    7.3352  -24.6159  -12.4936 C   0  0  0  0  0  0  0  0  0  0  0  0
    8.6692  -24.5136  -12.6053 C   0  0  0  0  0  0  0  0  0  0  0  0
   14.3891  -27.7814  -11.1804 C   0  0  0  0  0  0  0  0  0  0  0  0
    6.9358  -25.2747  -11.2020 C   0  0  0  0  0  0  0  0  0  0  0  0
    9.3265  -25.0141  -11.3600 C   0  0  1  0  0  0  0  0  0  0  0  0
    8.5493  -26.3696   -9.4138 C   0  0  2  0  0  0  0  0  0  0  0  0
    8.2432  -25.9868  -10.8645 C   0  0  1  0  0  0  0  0  0  0  0  0
   12.3921  -28.3228   -9.1764 C   0  0  0  0  0  0  0  0  0  0  0  0
    4.2317  -31.0219   -8.4480 C   0  0  0  0  0  0  0  0  0  0  0  0
    2.9495  -29.6341  -10.2674 N   0  0  0  0  0  0  0  0  0  0  0  0
    9.8960  -26.9552   -9.3594 N   0  0  0  0  0  0  0  0  0  0  0  0
   15.3531  -27.2406  -10.5223 O   0  5  0  0  0  0  0  0  0  0  0  0
   14.5129  -28.9021  -11.7997 O   0  0  0  0  0  0  0  0  0  0  0  0
    4.8315  -30.1533   -7.4881 O   0  0  0  0  0  0  0  0  0  0  0  0
   13.6145  -25.9732  -13.0001 H   0  0  0  0  0  0  0  0  0  0  0  0
   11.4754  -24.7843  -13.1227 H   0  0  0  0  0  0  0  0  0  0  0  0
    6.9131  -26.1334   -7.2586 H   0  0  0  0  0  0  0  0  0  0  0  0
    8.0039  -28.8243  -10.4409 H   0  0  0  0  0  0  0  0  0  0  0  0
    5.2878  -27.7889   -6.4176 H   0  0  0  0  0  0  0  0  0  0  0  0
    6.3781  -30.4776   -9.5975 H   0  0  0  0  0  0  0  0  0  0  0  0
    6.6314  -24.2582  -13.2308 H   0  0  0  0  0  0  0  0  0  0  0  0
    9.1722  -24.0422  -13.4366 H   0  0  0  0  0  0  0  0  0  0  0  0
    6.6457  -24.5290  -10.4552 H   0  0  0  0  0  0  0  0  0  0  0  0
    6.1183  -25.9864  -11.3480 H   0  0  0  0  0  0  0  0  0  0  0  0
    9.4477  -24.1603  -10.6769 H   0  0  0  0  0  0  0  0  0  0  0  0
    8.5147  -25.4881   -8.7639 H   0  0  0  0  0  0  0  0  0  0  0  0
    8.2615  -26.9127  -11.4702 H   0  0  0  0  0  0  0  0  0  0  0  0
   12.8493  -27.8171   -8.3207 H   0  0  0  0  0  0  0  0  0  0  0  0
   11.4719  -28.8159   -8.8468 H   0  0  0  0  0  0  0  0  0  0  0  0
   13.0710  -29.1058   -9.5298 H   0  0  0  0  0  0  0  0  0  0  0  0
    3.5447  -31.6866   -7.9162 H   0  0  0  0  0  0  0  0  0  0  0  0
    5.0168  -31.6375   -8.8976 H   0  0  0  0  0  0  0  0  0  0  0  0
   10.1580  -27.4805   -8.5333 H   0  0  0  0  0  0  0  0  0  0  0  0
  1 22  1  0  0  0  0
  1 23  3  0  0  0  0
  2  3  1  0  0  0  0
  2  8  2  0  0  0  0
  3 10  2  0  0  0  0
  4  6  2  0  0  0  0
  4  9  1  0  0  0  0
  5  7  1  0  0  0  0
  5  9  2  0  0  0  0
  6 13  1  0  0  0  0
  7 13  2  0  0  0  0
  8 11  1  0  0  0  0
  8 16  1  0  0  0  0
  9 19  1  0  0  0  0
 10 12  1  0  0  0  0
 10 18  1  0  0  0  0
 11 12  2  0  0  0  0
 11 21  1  0  0  0  0
 12 24  1  0  0  0  0
 13 27  1  0  0  0  0
 14 15  2  0  0  0  0
 14 17  1  0  0  0  0
 15 18  1  0  0  0  0
 16 25  1  0  0  0  0
 16 26  2  0  0  0  0
 17 20  1  0  0  0  0
 18 20  1  0  0  0  0
 19 20  1  0  0  0  0
 19 24  1  0  0  0  0
 22 27  1  0  0  0  0
  2 28  1  0  0  0  0
  3 29  1  0  0  0  0
  4 30  1  0  0  0  0
  5 31  1  0  0  0  0
  6 32  1  0  0  0  0
  7 33  1  0  0  0  0
 14 34  1  0  0  0  0
 15 35  1  0  0  0  0
 17 36  1  0  0  0  0
 17 37  1  0  0  0  0
 18 38  1  0  0  0  0
 19 39  1  0  0  0  0
 20 40  1  0  0  0  0
 21 41  1  0  0  0  0
 21 42  1  0  0  0  0
 21 43  1  0  0  0  0
 22 44  1  0  0  0  0
 22 45  1  0  0  0  0
 24 46  1  0  0  0  0
M  CHG  1  25  -1
M  END
> <Hybrid2>
-4.660158634185791

> <Hybrid2>
-4.561440

$$$$
C06729254
  -OEChem-02152218503D

 37 38  0     1  0  0  0  0  0999 V2000
   14.2237  -27.2808   -9.2296 C   0  0  0  0  0  0  0  0  0  0  0  0
   12.9765  -26.7083   -9.4533 C   0  0  0  0  0  0  0  0  0  0  0  0
   14.3916  -27.7014  -11.5644 C   0  0  0  0  0  0  0  0  0  0  0  0
   14.9511  -27.7892  -10.2999 C   0  0  0  0  0  0  0  0  0  0  0  0
   12.5054  -26.6687  -10.7557 C   0  0  0  0  0  0  0  0  0  0  0  0
    7.2736  -26.3499   -9.4812 C   0  0  0  0  0  0  0  0  0  0  0  0
    7.2995  -25.4792   -8.4465 C   0  0  0  0  0  0  0  0  0  0  0  0
   10.3853  -25.5316  -10.0232 C   0  0  0  0  0  0  0  0  0  0  0  0
    9.5843  -22.6989   -9.8227 C   0  0  0  0  0  0  0  0  0  0  0  0
    8.0808  -26.1244  -10.7481 C   0  0  0  0  0  0  0  0  0  0  0  0
    8.0847  -24.1836   -8.5066 C   0  0  0  0  0  0  0  0  0  0  0  0
    9.1265  -25.0065  -10.6615 C   0  0  1  0  0  0  0  0  0  0  0  0
    8.5523  -23.8106   -9.9108 C   0  0  2  0  0  0  0  0  0  0  0  0
    6.4561  -27.6146   -9.5158 C   0  0  0  0  0  0  0  0  0  0  0  0
    6.5887  -25.6838   -7.1344 C   0  0  0  0  0  0  0  0  0  0  0  0
   13.1831  -27.1523  -11.8208 N   0  0  0  0  0  0  0  0  0  0  0  0
   11.2359  -26.0827  -10.9732 N   0  0  0  0  0  0  0  0  0  0  0  0
   10.4261  -22.6690  -10.7627 O   0  5  0  0  0  0  0  0  0  0  0  0
   10.5603  -25.4416   -8.8123 O   0  0  0  0  0  0  0  0  0  0  0  0
    9.4662  -21.9452   -8.8161 O   0  0  0  0  0  0  0  0  0  0  0  0
   16.4922  -28.5030  -10.0615 Cl  0  0  0  0  0  0  0  0  0  0  0  0
   14.6180  -27.3228   -8.2178 H   0  0  0  0  0  0  0  0  0  0  0  0
   12.4025  -26.3084   -8.6236 H   0  0  0  0  0  0  0  0  0  0  0  0
   14.9095  -28.0801  -12.4404 H   0  0  0  0  0  0  0  0  0  0  0  0
    8.5592  -27.0760  -11.0315 H   0  0  0  0  0  0  0  0  0  0  0  0
    7.3915  -25.8831  -11.5737 H   0  0  0  0  0  0  0  0  0  0  0  0
    7.4412  -23.3860   -8.1291 H   0  0  0  0  0  0  0  0  0  0  0  0
    8.9461  -24.2547   -7.8396 H   0  0  0  0  0  0  0  0  0  0  0  0
    9.3923  -24.6991  -11.6680 H   0  0  0  0  0  0  0  0  0  0  0  0
    7.7066  -23.3866  -10.4840 H   0  0  0  0  0  0  0  0  0  0  0  0
    5.4805  -27.3973   -9.9394 H   0  0  0  0  0  0  0  0  0  0  0  0
    6.3436  -27.9951   -8.5049 H   0  0  0  0  0  0  0  0  0  0  0  0
    6.9674  -28.3535  -10.1254 H   0  0  0  0  0  0  0  0  0  0  0  0
    7.2499  -26.2035   -6.4482 H   0  0  0  0  0  0  0  0  0  0  0  0
    5.6924  -26.2734   -7.3022 H   0  0  0  0  0  0  0  0  0  0  0  0
    6.3142  -24.7172   -6.7231 H   0  0  0  0  0  0  0  0  0  0  0  0
   10.9221  -26.0691  -11.9414 H   0  0  0  0  0  0  0  0  0  0  0  0
  1  2  2  0  0  0  0
  1  4  1  0  0  0  0
  2  5  1  0  0  0  0
  3  4  2  0  0  0  0
  3 16  1  0  0  0  0
  4 21  1  0  0  0  0
  5 16  2  0  0  0  0
  5 17  1  0  0  0  0
  6  7  2  0  0  0  0
  6 10  1  0  0  0  0
  6 14  1  0  0  0  0
  7 11  1  0  0  0  0
  7 15  1  0  0  0  0
  8 12  1  0  0  0  0
  8 17  1  0  0  0  0
  8 19  2  0  0  0  0
  9 13  1  0  0  0  0
  9 18  1  0  0  0  0
  9 20  2  0  0  0  0
 10 12  1  0  0  0  0
 11 13  1  0  0  0  0
 12 13  1  0  0  0  0
  1 22  1  0  0  0  0
  2 23  1  0  0  0  0
  3 24  1  0  0  0  0
 10 25  1  0  0  0  0
 10 26  1  0  0  0  0
 11 27  1  0  0  0  0
 11 28  1  0  0  0  0
 12 29  1  0  0  0  0
 13 30  1  0  0  0  0
 14 31  1  0  0  0  0
 14 32  1  0  0  0  0
 14 33  1  0  0  0  0
 15 34  1  0  0  0  0
 15 35  1  0  0  0  0
 15 36  1  0  0  0  0
 17 37  1  0  0  0  0
M  CHG  1  18  -1
M  END
> <Hybrid2>
-2.1729960441589355

> <Hybrid2>
-2.172996

$$$$
C06729254
  -OEChem-02152218503D

 37 38  0     1  0  0  0  0  0999 V2000
   12.6211  -27.0311  -10.6657 C   0  0  0  0  0  0  0  0  0  0  0  0
   11.2571  -27.1996  -10.4544 C   0  0  0  0  0  0  0  0  0  0  0  0
   12.1449  -26.4279  -12.9165 C   0  0  0  0  0  0  0  0  0  0  0  0
   13.0816  -26.6380  -11.9174 C   0  0  0  0  0  0  0  0  0  0  0  0
   10.4021  -26.9641  -11.5190 C   0  0  0  0  0  0  0  0  0  0  0  0
    6.1975  -29.3978   -8.5940 C   0  0  0  0  0  0  0  0  0  0  0  0
    6.2029  -28.4775   -7.6028 C   0  0  0  0  0  0  0  0  0  0  0  0
    8.3931  -27.5222  -10.1131 C   0  0  0  0  0  0  0  0  0  0  0  0
    6.6498  -25.2017   -9.5811 C   0  0  0  0  0  0  0  0  0  0  0  0
    6.4074  -29.0191  -10.0501 C   0  0  0  0  0  0  0  0  0  0  0  0
    6.3526  -26.9952   -7.8840 C   0  0  0  0  0  0  0  0  0  0  0  0
    6.8983  -27.5856  -10.2839 C   0  0  1  0  0  0  0  0  0  0  0  0
    6.1680  -26.6246   -9.3530 C   0  0  2  0  0  0  0  0  0  0  0  0
    5.9779  -30.8741   -8.3906 C   0  0  0  0  0  0  0  0  0  0  0  0
    6.0822  -28.7956   -6.1355 C   0  0  0  0  0  0  0  0  0  0  0  0
   10.8123  -26.5814  -12.7490 N   0  0  0  0  0  0  0  0  0  0  0  0
    9.0158  -27.1369  -11.2934 N   0  0  0  0  0  0  0  0  0  0  0  0
    7.8742  -25.0032   -9.3474 O   0  5  0  0  0  0  0  0  0  0  0  0
    8.9139  -27.7888   -9.0348 O   0  0  0  0  0  0  0  0  0  0  0  0
    5.7594  -24.3980   -9.9767 O   0  0  0  0  0  0  0  0  0  0  0  0
   14.7567  -26.4211  -12.2147 Cl  0  0  0  0  0  0  0  0  0  0  0  0
   13.3137  -27.2071   -9.8472 H   0  0  0  0  0  0  0  0  0  0  0  0
   10.8892  -27.5054   -9.4804 H   0  0  0  0  0  0  0  0  0  0  0  0
   12.4411  -26.1201  -13.9148 H   0  0  0  0  0  0  0  0  0  0  0  0
    7.1059  -29.7422  -10.5018 H   0  0  0  0  0  0  0  0  0  0  0  0
    5.4573  -29.1470  -10.5939 H   0  0  0  0  0  0  0  0  0  0  0  0
    5.6017  -26.4663   -7.2930 H   0  0  0  0  0  0  0  0  0  0  0  0
    7.3346  -26.6624   -7.5420 H   0  0  0  0  0  0  0  0  0  0  0  0
    6.6903  -27.3094  -11.3129 H   0  0  0  0  0  0  0  0  0  0  0  0
    5.0902  -26.6171   -9.6021 H   0  0  0  0  0  0  0  0  0  0  0  0
    4.9163  -31.0899   -8.4612 H   0  0  0  0  0  0  0  0  0  0  0  0
    6.3485  -31.1587   -7.4104 H   0  0  0  0  0  0  0  0  0  0  0  0
    6.5185  -31.4240   -9.1552 H   0  0  0  0  0  0  0  0  0  0  0  0
    7.0738  -28.9489   -5.7214 H   0  0  0  0  0  0  0  0  0  0  0  0
    5.4871  -29.6955   -6.0131 H   0  0  0  0  0  0  0  0  0  0  0  0
    5.5943  -27.9677   -5.6302 H   0  0  0  0  0  0  0  0  0  0  0  0
    8.4174  -26.9539  -12.0963 H   0  0  0  0  0  0  0  0  0  0  0  0
  1  2  2  0  0  0  0
  1  4  1  0  0  0  0
  2  5  1  0  0  0  0
  3  4  2  0  0  0  0
  3 16  1  0  0  0  0
  4 21  1  0  0  0  0
  5 16  2  0  0  0  0
  5 17  1  0  0  0  0
  6  7  2  0  0  0  0
  6 10  1  0  0  0  0
  6 14  1  0  0  0  0
  7 11  1  0  0  0  0
  7 15  1  0  0  0  0
  8 12  1  0  0  0  0
  8 17  1  0  0  0  0
  8 19  2  0  0  0  0
  9 13  1  0  0  0  0
  9 18  1  0  0  0  0
  9 20  2  0  0  0  0
 10 12  1  0  0  0  0
 11 13  1  0  0  0  0
 12 13  1  0  0  0  0
  1 22  1  0  0  0  0
  2 23  1  0  0  0  0
  3 24  1  0  0  0  0
 10 25  1  0  0  0  0
 10 26  1  0  0  0  0
 11 27  1  0  0  0  0
 11 28  1  0  0  0  0
 12 29  1  0  0  0  0
 13 30  1  0  0  0  0
 14 31  1  0  0  0  0
 14 32  1  0  0  0  0
 14 33  1  0  0  0  0
 15 34  1  0  0  0  0
 15 35  1  0  0  0  0
 15 36  1  0  0  0  0
 17 37  1  0  0  0  0
M  CHG  1  18  -1
M  END
> <Hybrid2>
-2.1729960441589355

> <Hybrid2>
-1.768744

$$$$
C19814971
  -OEChem-02152218503D

 26 27  0     0  0  0  0  0  0999 V2000
    8.7957  -29.1072  -10.2443 C   0  0  0  0  0  0  0  0  0  0  0  0
    7.9648  -30.1363   -9.8014 C   0  0  0  0  0  0  0  0  0  0  0  0
    6.4924  -28.5111   -8.7876 C   0  0  0  0  0  0  0  0  0  0  0  0
    8.4750  -27.7801   -9.9588 C   0  0  0  0  0  0  0  0  0  0  0  0
    6.8132  -29.8383   -9.0731 C   0  0  0  0  0  0  0  0  0  0  0  0
    7.3234  -27.4820   -9.2305 C   0  0  0  0  0  0  0  0  0  0  0  0
   13.6574  -27.1978  -11.8823 C   0  0  0  0  0  0  0  0  0  0  0  0
   12.7366  -27.1797  -12.8681 C   0  0  0  0  0  0  0  0  0  0  0  0
   11.6389  -26.9471  -10.8475 C   0  0  0  0  0  0  0  0  0  0  0  0
    9.4000  -26.7188  -10.4525 C   0  0  0  0  0  0  0  0  0  0  0  0
   13.6910  -27.0337   -9.3666 C   0  0  0  0  0  0  0  0  0  0  0  0
   10.6917  -26.8044   -9.9814 N   0  0  0  0  0  0  0  0  0  0  0  0
   11.5057  -27.0268  -12.2362 N   0  0  0  0  0  0  0  0  0  0  0  0
   13.0291  -27.0597  -10.6490 N   0  0  0  0  0  0  0  0  0  0  0  0
   12.7111  -27.2599  -14.1169 O   0  5  0  0  0  0  0  0  0  0  0  0
    8.9636  -25.8662  -11.2211 O   0  0  0  0  0  0  0  0  0  0  0  0
    6.0154  -30.8265   -8.6476 F   0  0  0  0  0  0  0  0  0  0  0  0
    6.8405  -25.6944   -8.8154 Br  0  0  0  0  0  0  0  0  0  0  0  0
    9.6905  -29.3535  -10.8105 H   0  0  0  0  0  0  0  0  0  0  0  0
    8.2140  -31.1697  -10.0235 H   0  0  0  0  0  0  0  0  0  0  0  0
    5.5906  -28.2991   -8.2190 H   0  0  0  0  0  0  0  0  0  0  0  0
   14.7299  -27.2985  -11.9409 H   0  0  0  0  0  0  0  0  0  0  0  0
   13.9515  -25.9966   -9.1088 H   0  0  0  0  0  0  0  0  0  0  0  0
   13.0188  -27.4445   -8.5988 H   0  0  0  0  0  0  0  0  0  0  0  0
   14.6071  -27.6406   -9.4146 H   0  0  0  0  0  0  0  0  0  0  0  0
   10.6429  -26.9835  -12.7608 H   0  0  0  0  0  0  0  0  0  0  0  0
  1  2  2  0  0  0  0
  1  4  1  0  0  0  0
  2  5  1  0  0  0  0
  3  5  2  0  0  0  0
  3  6  1  0  0  0  0
  4  6  2  0  0  0  0
  4 10  1  0  0  0  0
  5 17  1  0  0  0  0
  6 18  1  0  0  0  0
  7  8  2  0  0  0  0
  7 14  1  0  0  0  0
  8 13  1  0  0  0  0
  8 15  1  0  0  0  0
  9 12  2  0  0  0  0
  9 13  1  0  0  0  0
  9 14  1  0  0  0  0
 10 12  1  0  0  0  0
 10 16  2  0  0  0  0
 11 14  1  0  0  0  0
  1 19  1  0  0  0  0
  2 20  1  0  0  0  0
  3 21  1  0  0  0  0
  7 22  1  0  0  0  0
 11 23  1  0  0  0  0
 11 24  1  0  0  0  0
 11 25  1  0  0  0  0
 13 26  1  0  0  0  0
M  CHG  1  15  -1
M  END
> <Hybrid2>
-5.483338832855225

> <Hybrid2>
-5.483339

$$$$
C19814971
  -OEChem-02152218503D

 26 27  0     0  0  0  0  0  0999 V2000
   10.4062  -26.9491  -12.0837 C   0  0  0  0  0  0  0  0  0  0  0  0
   11.1177  -26.9476  -13.2835 C   0  0  0  0  0  0  0  0  0  0  0  0
   13.1885  -27.1502  -12.0556 C   0  0  0  0  0  0  0  0  0  0  0  0
   11.0858  -27.0511  -10.8699 C   0  0  0  0  0  0  0  0  0  0  0  0
   12.5088  -27.0482  -13.2694 C   0  0  0  0  0  0  0  0  0  0  0  0
   12.4770  -27.1517  -10.8559 C   0  0  0  0  0  0  0  0  0  0  0  0
    5.8428  -27.7805   -9.1746 C   0  0  0  0  0  0  0  0  0  0  0  0
    6.1885  -26.4778   -9.2350 C   0  0  0  0  0  0  0  0  0  0  0  0
    8.1141  -27.7463   -9.3938 C   0  0  0  0  0  0  0  0  0  0  0  0
   10.2768  -27.0437   -9.6165 C   0  0  0  0  0  0  0  0  0  0  0  0
    7.0045  -30.0172   -9.2406 C   0  0  0  0  0  0  0  0  0  0  0  0
    9.3601  -28.0661   -9.5070 N   0  0  0  0  0  0  0  0  0  0  0  0
    7.5740  -26.4577   -9.3687 N   0  0  0  0  0  0  0  0  0  0  0  0
    6.9813  -28.5742   -9.2674 N   0  0  0  0  0  0  0  0  0  0  0  0
    5.6197  -25.3634   -9.2036 O   0  5  0  0  0  0  0  0  0  0  0  0
   10.4743  -26.1556   -8.7917 O   0  0  0  0  0  0  0  0  0  0  0  0
   13.1921  -27.0465  -14.4215 F   0  0  0  0  0  0  0  0  0  0  0  0
   13.4504  -27.2935   -9.2331 Br  0  0  0  0  0  0  0  0  0  0  0  0
    9.3223  -26.8695  -12.1090 H   0  0  0  0  0  0  0  0  0  0  0  0
   10.5890  -26.8682  -14.2287 H   0  0  0  0  0  0  0  0  0  0  0  0
   14.2727  -27.2281  -12.0654 H   0  0  0  0  0  0  0  0  0  0  0  0
    4.8685  -28.2323   -9.0715 H   0  0  0  0  0  0  0  0  0  0  0  0
    6.9118  -30.4050  -10.2657 H   0  0  0  0  0  0  0  0  0  0  0  0
    7.9537  -30.3604   -8.8033 H   0  0  0  0  0  0  0  0  0  0  0  0
    6.1658  -30.3860   -8.6319 H   0  0  0  0  0  0  0  0  0  0  0  0
    8.0870  -25.5895   -9.4363 H   0  0  0  0  0  0  0  0  0  0  0  0
  1  2  2  0  0  0  0
  1  4  1  0  0  0  0
  2  5  1  0  0  0  0
  3  5  2  0  0  0  0
  3  6  1  0  0  0  0
  4  6  2  0  0  0  0
  4 10  1  0  0  0  0
  5 17  1  0  0  0  0
  6 18  1  0  0  0  0
  7  8  2  0  0  0  0
  7 14  1  0  0  0  0
  8 13  1  0  0  0  0
  8 15  1  0  0  0  0
  9 12  2  0  0  0  0
  9 13  1  0  0  0  0
  9 14  1  0  0  0  0
 10 12  1  0  0  0  0
 10 16  2  0  0  0  0
 11 14  1  0  0  0  0
  1 19  1  0  0  0  0
  2 20  1  0  0  0  0
  3 21  1  0  0  0  0
  7 22  1  0  0  0  0
 11 23  1  0  0  0  0
 11 24  1  0  0  0  0
 11 25  1  0  0  0  0
 13 26  1  0  0  0  0
M  CHG  1  15  -1
M  END
> <Hybrid2>
-5.483338832855225

> <Hybrid2>
-4.959029

$$$$
C01256105
  -OEChem-02152218503D

 28 30  0     0  0  0  0  0  0999 V2000
    6.8449  -29.9690   -8.9455 C   0  0  0  0  0  0  0  0  0  0  0  0
    5.6573  -29.6212   -8.3048 C   0  0  0  0  0  0  0  0  0  0  0  0
    7.7801  -28.9904   -9.3013 C   0  0  0  0  0  0  0  0  0  0  0  0
    5.3666  -28.2884   -7.9996 C   0  0  0  0  0  0  0  0  0  0  0  0
    7.4369  -25.4011   -8.7021 C   0  0  0  0  0  0  0  0  0  0  0  0
    7.5088  -27.6401   -9.0040 C   0  0  0  0  0  0  0  0  0  0  0  0
    8.2091  -26.4190   -9.2124 C   0  0  0  0  0  0  0  0  0  0  0  0
    6.3108  -27.3209   -8.3613 C   0  0  0  0  0  0  0  0  0  0  0  0
   12.5862  -27.5320  -10.4710 C   0  0  0  0  0  0  0  0  0  0  0  0
   11.7255  -26.1893  -11.9426 C   0  0  0  0  0  0  0  0  0  0  0  0
    9.4884  -26.2264   -9.8343 C   0  0  0  0  0  0  0  0  0  0  0  0
   12.6899  -28.4693   -9.3378 C   0  0  0  0  0  0  0  0  0  0  0  0
   13.5670  -27.0956  -11.2286 N   0  0  0  0  0  0  0  0  0  0  0  0
   13.0194  -26.2414  -12.1649 N   0  0  0  0  0  0  0  0  0  0  0  0
   10.1723  -27.2195  -10.3302 N   0  0  0  0  0  0  0  0  0  0  0  0
    6.2940  -25.9549   -8.1906 N   0  0  0  0  0  0  0  0  0  0  0  0
   11.4088  -26.9868  -10.8850 N   0  0  0  0  0  0  0  0  0  0  0  0
   13.9658  -28.9074   -9.0824 F   0  0  0  0  0  0  0  0  0  0  0  0
   12.2606  -27.9550   -8.1395 F   0  0  0  0  0  0  0  0  0  0  0  0
   11.9545  -29.6139   -9.5118 F   0  0  0  0  0  0  0  0  0  0  0  0
   10.6023  -25.2768  -12.8300 S   0  5  0  0  0  0  0  0  0  0  0  0
    7.0486  -31.0126   -9.1716 H   0  0  0  0  0  0  0  0  0  0  0  0
    4.9447  -30.3974   -8.0377 H   0  0  0  0  0  0  0  0  0  0  0  0
    8.7012  -29.2778   -9.8000 H   0  0  0  0  0  0  0  0  0  0  0  0
    4.4417  -28.0192   -7.5010 H   0  0  0  0  0  0  0  0  0  0  0  0
    7.5951  -24.3323   -8.6553 H   0  0  0  0  0  0  0  0  0  0  0  0
    9.8595  -25.1797   -9.8968 H   0  0  0  0  0  0  0  0  0  0  0  0
    5.5459  -25.4363   -7.7517 H   0  0  0  0  0  0  0  0  0  0  0  0
  1  2  1  0  0  0  0
  1  3  2  0  0  0  0
  2  4  2  0  0  0  0
  3  6  1  0  0  0  0
  4  8  1  0  0  0  0
  5  7  2  0  0  0  0
  5 16  1  0  0  0  0
  6  7  1  0  0  0  0
  6  8  2  0  0  0  0
  7 11  1  0  0  0  0
  8 16  1  0  0  0  0
  9 12  1  0  0  0  0
  9 13  2  0  0  0  0
  9 17  1  0  0  0  0
 10 14  2  0  0  0  0
 10 17  1  0  0  0  0
 10 21  1  0  0  0  0
 11 15  2  0  0  0  0
 12 18  1  0  0  0  0
 12 19  1  0  0  0  0
 12 20  1  0  0  0  0
 13 14  1  0  0  0  0
 15 17  1  0  0  0  0
  1 22  1  0  0  0  0
  2 23  1  0  0  0  0
  3 24  1  0  0  0  0
  4 25  1  0  0  0  0
  5 26  1  0  0  0  0
 11 27  1  0  0  0  0
 16 28  1  0  0  0  0
M  CHG  1  21  -1
M  END
> <Hybrid2>
-6.1229634284973145

> <Hybrid2>
-6.122963

$$$$
C01256105
  -OEChem-02152218503D

 28 30  0     0  0  0  0  0  0999 V2000
    6.4837  -30.1814   -8.7979 C   0  0  0  0  0  0  0  0  0  0  0  0
    5.4130  -29.3094   -8.6109 C   0  0  0  0  0  0  0  0  0  0  0  0
    7.7513  -29.6965   -9.1399 C   0  0  0  0  0  0  0  0  0  0  0  0
    5.5736  -27.9287   -8.7589 C   0  0  0  0  0  0  0  0  0  0  0  0
    8.6241  -26.1808   -9.6283 C   0  0  0  0  0  0  0  0  0  0  0  0
    7.9373  -28.3084   -9.2946 C   0  0  0  0  0  0  0  0  0  0  0  0
    9.0519  -27.4884   -9.6266 C   0  0  0  0  0  0  0  0  0  0  0  0
    6.8464  -27.4582   -9.1009 C   0  0  0  0  0  0  0  0  0  0  0  0
   13.2774  -27.2446  -11.6435 C   0  0  0  0  0  0  0  0  0  0  0  0
   13.4475  -28.2253   -9.7152 C   0  0  0  0  0  0  0  0  0  0  0  0
   10.3974  -27.8968   -9.9153 C   0  0  0  0  0  0  0  0  0  0  0  0
   12.7163  -26.4614  -12.7595 C   0  0  0  0  0  0  0  0  0  0  0  0
   14.4613  -27.8123  -11.5925 N   0  0  0  0  0  0  0  0  0  0  0  0
   14.5695  -28.4362  -10.3656 N   0  0  0  0  0  0  0  0  0  0  0  0
   11.3398  -27.0352  -10.1785 N   0  0  0  0  0  0  0  0  0  0  0  0
    7.2925  -26.1727   -9.3099 N   0  0  0  0  0  0  0  0  0  0  0  0
   12.6052  -27.4793  -10.4826 N   0  0  0  0  0  0  0  0  0  0  0  0
   13.5545  -26.3374  -13.8398 F   0  0  0  0  0  0  0  0  0  0  0  0
   11.5581  -26.9784  -13.2849 F   0  0  0  0  0  0  0  0  0  0  0  0
   12.3993  -25.1730  -12.4121 F   0  0  0  0  0  0  0  0  0  0  0  0
   13.0855  -28.7850   -8.1540 S   0  5  0  0  0  0  0  0  0  0  0  0
    6.3339  -31.2512   -8.6764 H   0  0  0  0  0  0  0  0  0  0  0  0
    4.4368  -29.7076   -8.3460 H   0  0  0  0  0  0  0  0  0  0  0  0
    8.5757  -30.3892   -9.2819 H   0  0  0  0  0  0  0  0  0  0  0  0
    4.7392  -27.2511   -8.6131 H   0  0  0  0  0  0  0  0  0  0  0  0
    9.1446  -25.2540   -9.8268 H   0  0  0  0  0  0  0  0  0  0  0  0
   10.6055  -28.9889   -9.8782 H   0  0  0  0  0  0  0  0  0  0  0  0
    6.7195  -25.3432   -9.2388 H   0  0  0  0  0  0  0  0  0  0  0  0
  1  2  1  0  0  0  0
  1  3  2  0  0  0  0
  2  4  2  0  0  0  0
  3  6  1  0  0  0  0
  4  8  1  0  0  0  0
  5  7  2  0  0  0  0
  5 16  1  0  0  0  0
  6  7  1  0  0  0  0
  6  8  2  0  0  0  0
  7 11  1  0  0  0  0
  8 16  1  0  0  0  0
  9 12  1  0  0  0  0
  9 13  2  0  0  0  0
  9 17  1  0  0  0  0
 10 14  2  0  0  0  0
 10 17  1  0  0  0  0
 10 21  1  0  0  0  0
 11 15  2  0  0  0  0
 12 18  1  0  0  0  0
 12 19  1  0  0  0  0
 12 20  1  0  0  0  0
 13 14  1  0  0  0  0
 15 17  1  0  0  0  0
  1 22  1  0  0  0  0
  2 23  1  0  0  0  0
  3 24  1  0  0  0  0
  4 25  1  0  0  0  0
  5 26  1  0  0  0  0
 11 27  1  0  0  0  0
 16 28  1  0  0  0  0
M  CHG  1  21  -1
M  END
> <Hybrid2>
-6.1229634284973145

> <Hybrid2>
-5.532458

$$$$
C19904881
  -OEChem-02152218503D

 37 38  0     1  0  0  0  0  0999 V2000
    8.1159  -29.5506  -10.2538 C   0  0  0  0  0  0  0  0  0  0  0  0
   11.6034  -26.6171   -8.9871 C   0  0  0  0  0  0  0  0  0  0  0  0
   12.4685  -26.7491  -10.0733 C   0  0  0  0  0  0  0  0  0  0  0  0
   10.2249  -26.7127   -9.1778 C   0  0  0  0  0  0  0  0  0  0  0  0
   11.9552  -26.9766  -11.3501 C   0  0  0  0  0  0  0  0  0  0  0  0
    9.7115  -26.9402  -10.4546 C   0  0  0  0  0  0  0  0  0  0  0  0
   10.5767  -27.0722  -11.5408 C   0  0  0  0  0  0  0  0  0  0  0  0
    7.6795  -28.2471   -9.8487 C   0  0  0  0  0  0  0  0  0  0  0  0
    7.5587  -25.7205  -10.2544 C   0  0  0  0  0  0  0  0  0  0  0  0
    6.6903  -25.6162   -9.2197 C   0  0  0  0  0  0  0  0  0  0  0  0
    6.8074  -28.0556   -8.8252 C   0  0  0  0  0  0  0  0  0  0  0  0
    7.8757  -24.5397  -11.0788 C   0  0  0  0  0  0  0  0  0  0  0  0
    8.2237  -27.0407  -10.6359 C   0  0  1  0  0  0  0  0  0  0  0  0
   10.0504  -27.3155  -12.9173 C   0  0  0  0  0  0  0  0  0  0  0  0
    8.7763  -22.3747  -10.9348 C   0  0  0  0  0  0  0  0  0  0  0  0
    4.4435  -29.2253   -8.2341 C   0  0  0  0  0  0  0  0  0  0  0  0
    8.4690  -30.6059  -10.5815 N   0  0  0  0  0  0  0  0  0  0  0  0
    6.3817  -26.7713   -8.5200 N   0  0  0  0  0  0  0  0  0  0  0  0
    6.0534  -24.6409   -8.7382 O   0  5  0  0  0  0  0  0  0  0  0  0
    7.6654  -24.4863  -12.2750 O   0  0  0  0  0  0  0  0  0  0  0  0
    8.4135  -23.5920  -10.2750 O   0  0  0  0  0  0  0  0  0  0  0  0
    6.2021  -29.4283   -7.8972 S   0  0  0  0  0  0  0  0  0  0  0  0
   12.0034  -26.4392   -7.9934 H   0  0  0  0  0  0  0  0  0  0  0  0
   13.5417  -26.6742   -9.9241 H   0  0  0  0  0  0  0  0  0  0  0  0
    9.5592  -26.6068   -8.3252 H   0  0  0  0  0  0  0  0  0  0  0  0
   12.6374  -27.0785  -12.1901 H   0  0  0  0  0  0  0  0  0  0  0  0
    8.0279  -27.2194  -11.7016 H   0  0  0  0  0  0  0  0  0  0  0  0
    9.9646  -28.3918  -13.1064 H   0  0  0  0  0  0  0  0  0  0  0  0
    9.0627  -26.8572  -13.0507 H   0  0  0  0  0  0  0  0  0  0  0  0
   10.7104  -26.8784  -13.6768 H   0  0  0  0  0  0  0  0  0  0  0  0
    9.1985  -21.6770  -10.2075 H   0  0  0  0  0  0  0  0  0  0  0  0
    7.8924  -21.9367  -11.4052 H   0  0  0  0  0  0  0  0  0  0  0  0
    9.5232  -22.5947  -11.7013 H   0  0  0  0  0  0  0  0  0  0  0  0
    3.8751  -30.0095   -7.7280 H   0  0  0  0  0  0  0  0  0  0  0  0
    4.2617  -29.2911   -9.3097 H   0  0  0  0  0  0  0  0  0  0  0  0
    4.1067  -28.2503   -7.8736 H   0  0  0  0  0  0  0  0  0  0  0  0
    5.7268  -26.6785   -7.7523 H   0  0  0  0  0  0  0  0  0  0  0  0
  1  8  1  0  0  0  0
  1 17  3  0  0  0  0
  2  3  1  0  0  0  0
  2  4  2  0  0  0  0
  3  5  2  0  0  0  0
  4  6  1  0  0  0  0
  5  7  1  0  0  0  0
  6  7  2  0  0  0  0
  6 13  1  0  0  0  0
  7 14  1  0  0  0  0
  8 11  2  0  0  0  0
  8 13  1  0  0  0  0
  9 10  2  0  0  0  0
  9 12  1  0  0  0  0
  9 13  1  0  0  0  0
 10 18  1  0  0  0  0
 10 19  1  0  0  0  0
 11 18  1  0  0  0  0
 11 22  1  0  0  0  0
 12 20  2  0  0  0  0
 12 21  1  0  0  0  0
 15 21  1  0  0  0  0
 16 22  1  0  0  0  0
  2 23  1  0  0  0  0
  3 24  1  0  0  0  0
  4 25  1  0  0  0  0
  5 26  1  0  0  0  0
 13 27  1  0  0  0  0
 14 28  1  0  0  0  0
 14 29  1  0  0  0  0
 14 30  1  0  0  0  0
 15 31  1  0  0  0  0
 15 32  1  0  0  0  0
 15 33  1  0  0  0  0
 16 34  1  0  0  0  0
 16 35  1  0  0  0  0
 16 36  1  0  0  0  0
 18 37  1  0  0  0  0
M  CHG  1  19  -1
M  END
> <Hybrid2>
-4.058310508728027

> <Hybrid2>
-4.058311

$$$$
C19904881
  -OEChem-02152218503D

 37 38  0     1  0  0  0  0  0999 V2000
   11.1160  -26.9269   -9.3565 C   0  0  0  0  0  0  0  0  0  0  0  0
    7.4729  -29.8427  -10.1294 C   0  0  0  0  0  0  0  0  0  0  0  0
    6.7673  -29.7082   -8.9338 C   0  0  0  0  0  0  0  0  0  0  0  0
    8.1770  -28.7568  -10.6497 C   0  0  0  0  0  0  0  0  0  0  0  0
    6.7657  -28.4877   -8.2584 C   0  0  0  0  0  0  0  0  0  0  0  0
    8.1754  -27.5363   -9.9744 C   0  0  0  0  0  0  0  0  0  0  0  0
    7.4698  -27.4018   -8.7787 C   0  0  0  0  0  0  0  0  0  0  0  0
   10.4429  -26.7203  -10.6046 C   0  0  0  0  0  0  0  0  0  0  0  0
    8.3623  -25.9955  -11.9117 C   0  0  0  0  0  0  0  0  0  0  0  0
    9.0737  -26.0956  -13.0604 C   0  0  0  0  0  0  0  0  0  0  0  0
   11.0833  -26.7977  -11.7998 C   0  0  0  0  0  0  0  0  0  0  0  0
    6.9830  -25.4745  -11.9364 C   0  0  0  0  0  0  0  0  0  0  0  0
    8.9417  -26.3811  -10.5529 C   0  0  1  0  0  0  0  0  0  0  0  0
    7.4529  -26.1048   -8.0382 C   0  0  0  0  0  0  0  0  0  0  0  0
    4.9232  -25.6478  -10.8200 C   0  0  0  0  0  0  0  0  0  0  0  0
   13.4040  -25.7195  -12.6698 C   0  0  0  0  0  0  0  0  0  0  0  0
   11.6612  -27.0942   -8.3462 N   0  0  0  0  0  0  0  0  0  0  0  0
   10.3854  -26.5315  -12.9686 N   0  0  0  0  0  0  0  0  0  0  0  0
    8.7879  -25.8483  -14.2628 O   0  5  0  0  0  0  0  0  0  0  0  0
    6.5922  -24.6617  -12.7516 O   0  0  0  0  0  0  0  0  0  0  0  0
    6.2912  -26.0549  -10.9274 O   0  0  0  0  0  0  0  0  0  0  0  0
   12.7955  -27.2162  -11.8717 S   0  0  0  0  0  0  0  0  0  0  0  0
    7.4732  -30.7928  -10.6553 H   0  0  0  0  0  0  0  0  0  0  0  0
    6.2189  -30.5541   -8.5294 H   0  0  0  0  0  0  0  0  0  0  0  0
    8.7223  -28.8715  -11.5829 H   0  0  0  0  0  0  0  0  0  0  0  0
    6.2133  -28.3929   -7.3272 H   0  0  0  0  0  0  0  0  0  0  0  0
    8.8144  -25.5239   -9.8784 H   0  0  0  0  0  0  0  0  0  0  0  0
    8.2835  -26.0644   -7.3240 H   0  0  0  0  0  0  0  0  0  0  0  0
    7.5412  -25.2547   -8.7258 H   0  0  0  0  0  0  0  0  0  0  0  0
    6.5124  -25.9746   -7.4886 H   0  0  0  0  0  0  0  0  0  0  0  0
    4.4524  -26.1675   -9.9819 H   0  0  0  0  0  0  0  0  0  0  0  0
    4.3982  -25.8825  -11.7494 H   0  0  0  0  0  0  0  0  0  0  0  0
    4.8858  -24.5700  -10.6449 H   0  0  0  0  0  0  0  0  0  0  0  0
   14.4859  -25.7856  -12.8084 H   0  0  0  0  0  0  0  0  0  0  0  0
   13.1768  -24.8493  -12.0491 H   0  0  0  0  0  0  0  0  0  0  0  0
   12.9256  -25.5979  -13.6447 H   0  0  0  0  0  0  0  0  0  0  0  0
   10.9065  -26.5963  -13.8354 H   0  0  0  0  0  0  0  0  0  0  0  0
  1  8  1  0  0  0  0
  1 17  3  0  0  0  0
  2  3  1  0  0  0  0
  2  4  2  0  0  0  0
  3  5  2  0  0  0  0
  4  6  1  0  0  0  0
  5  7  1  0  0  0  0
  6  7  2  0  0  0  0
  6 13  1  0  0  0  0
  7 14  1  0  0  0  0
  8 11  2  0  0  0  0
  8 13  1  0  0  0  0
  9 10  2  0  0  0  0
  9 12  1  0  0  0  0
  9 13  1  0  0  0  0
 10 18  1  0  0  0  0
 10 19  1  0  0  0  0
 11 18  1  0  0  0  0
 11 22  1  0  0  0  0
 12 20  2  0  0  0  0
 12 21  1  0  0  0  0
 15 21  1  0  0  0  0
 16 22  1  0  0  0  0
  2 23  1  0  0  0  0
  3 24  1  0  0  0  0
  4 25  1  0  0  0  0
  5 26  1  0  0  0  0
 13 27  1  0  0  0  0
 14 28  1  0  0  0  0
 14 29  1  0  0  0  0
 14 30  1  0  0  0  0
 15 31  1  0  0  0  0
 15 32  1  0  0  0  0
 15 33  1  0  0  0  0
 16 34  1  0  0  0  0
 16 35  1  0  0  0  0
 16 36  1  0  0  0  0
 18 37  1  0  0  0  0
M  CHG  1  19  -1
M  END
> <Hybrid2>
-4.058310508728027

> <Hybrid2>
-4.003706

$$$$
C21958170
  -OEChem-02152218503D

 38 40  0     0  0  0  0  0  0999 V2000
    7.7394  -25.6261   -9.3780 C   0  0  0  0  0  0  0  0  0  0  0  0
    6.6979  -25.2912   -8.5775 C   0  0  0  0  0  0  0  0  0  0  0  0
    7.9950  -27.0738   -9.6514 C   0  0  0  0  0  0  0  0  0  0  0  0
    8.6932  -24.6439  -10.0387 C   0  0  0  0  0  0  0  0  0  0  0  0
    9.7781  -26.5134  -10.9590 C   0  0  0  0  0  0  0  0  0  0  0  0
    6.0679  -27.6507   -8.2383 C   0  0  0  0  0  0  0  0  0  0  0  0
   13.2325  -26.5790  -13.5509 C   0  0  0  0  0  0  0  0  0  0  0  0
   11.8838  -26.9790  -14.1416 C   0  0  0  0  0  0  0  0  0  0  0  0
   13.3953  -27.0947  -12.1243 C   0  0  0  0  0  0  0  0  0  0  0  0
   10.7255  -26.5353  -13.2520 C   0  0  0  0  0  0  0  0  0  0  0  0
   12.2405  -26.6516  -11.2299 C   0  0  0  0  0  0  0  0  0  0  0  0
   10.8848  -27.0477  -11.8188 C   0  0  0  0  0  0  0  0  0  0  0  0
    6.3797  -29.9719  -10.2838 C   0  0  0  0  0  0  0  0  0  0  0  0
    7.3774  -29.4269   -9.3192 C   0  0  0  0  0  0  0  0  0  0  0  0
    8.9699  -27.4659  -10.4060 N   0  0  0  0  0  0  0  0  0  0  0  0
    9.6742  -25.2340  -10.8083 N   0  0  0  0  0  0  0  0  0  0  0  0
    5.9141  -26.2926   -8.0462 N   0  0  0  0  0  0  0  0  0  0  0  0
    7.1421  -28.0064   -9.0629 N   0  0  0  0  0  0  0  0  0  0  0  0
    6.2423  -24.1877   -8.1731 O   0  5  0  0  0  0  0  0  0  0  0  0
    5.2978  -28.4543   -7.7069 O   0  0  0  0  0  0  0  0  0  0  0  0
    8.6660  -22.9529   -9.9229 S   0  0  0  0  0  0  0  0  0  0  0  0
   14.0394  -26.9771  -14.1787 H   0  0  0  0  0  0  0  0  0  0  0  0
   13.3295  -25.4873  -13.5611 H   0  0  0  0  0  0  0  0  0  0  0  0
   11.7763  -26.5327  -15.1366 H   0  0  0  0  0  0  0  0  0  0  0  0
   11.8492  -28.0652  -14.2756 H   0  0  0  0  0  0  0  0  0  0  0  0
   13.4477  -28.1895  -12.1364 H   0  0  0  0  0  0  0  0  0  0  0  0
   14.3473  -26.7399  -11.7123 H   0  0  0  0  0  0  0  0  0  0  0  0
   10.6538  -25.4490  -13.2665 H   0  0  0  0  0  0  0  0  0  0  0  0
    9.7979  -26.9349  -13.6625 H   0  0  0  0  0  0  0  0  0  0  0  0
   12.3500  -27.1266  -10.2531 H   0  0  0  0  0  0  0  0  0  0  0  0
   12.2925  -25.5727  -11.0800 H   0  0  0  0  0  0  0  0  0  0  0  0
   10.7908  -28.1232  -11.8084 H   0  0  0  0  0  0  0  0  0  0  0  0
    6.4506  -29.4234  -11.2346 H   0  0  0  0  0  0  0  0  0  0  0  0
    6.5845  -31.0383  -10.4597 H   0  0  0  0  0  0  0  0  0  0  0  0
    5.3676  -29.8566   -9.8687 H   0  0  0  0  0  0  0  0  0  0  0  0
    7.3001  -29.9803   -8.3717 H   0  0  0  0  0  0  0  0  0  0  0  0
    8.3870  -29.5540   -9.7368 H   0  0  0  0  0  0  0  0  0  0  0  0
    5.1462  -25.9904   -7.4530 H   0  0  0  0  0  0  0  0  0  0  0  0
  1  2  2  0  0  0  0
  1  3  1  0  0  0  0
  1  4  1  0  0  0  0
  2 17  1  0  0  0  0
  2 19  1  0  0  0  0
  3 15  2  0  0  0  0
  3 18  1  0  0  0  0
  4 16  1  0  0  0  0
  4 21  2  0  0  0  0
  5 12  1  0  0  0  0
  5 15  1  0  0  0  0
  5 16  2  0  0  0  0
  6 17  1  0  0  0  0
  6 18  1  0  0  0  0
  6 20  2  0  0  0  0
  7  8  1  0  0  0  0
  7  9  1  0  0  0  0
  8 10  1  0  0  0  0
  9 11  1  0  0  0  0
 10 12  1  0  0  0  0
 11 12  1  0  0  0  0
 13 14  1  0  0  0  0
 14 18  1  0  0  0  0
  7 22  1  0  0  0  0
  7 23  1  0  0  0  0
  8 24  1  0  0  0  0
  8 25  1  0  0  0  0
  9 26  1  0  0  0  0
  9 27  1  0  0  0  0
 10 28  1  0  0  0  0
 10 29  1  0  0  0  0
 11 30  1  0  0  0  0
 11 31  1  0  0  0  0
 12 32  1  0  0  0  0
 13 33  1  0  0  0  0
 13 34  1  0  0  0  0
 13 35  1  0  0  0  0
 14 36  1  0  0  0  0
 14 37  1  0  0  0  0
 17 38  1  0  0  0  0
M  CHG  1  19  -1
M  END
> <Hybrid2>
-5.608645439147949

> <Hybrid2>
-5.608645

$$$$
C21958170
  -OEChem-02152218503D

 38 40  0     0  0  0  0  0  0999 V2000
    7.8824  -26.1392   -9.4912 C   0  0  0  0  0  0  0  0  0  0  0  0
    6.9375  -25.6577   -8.6467 C   0  0  0  0  0  0  0  0  0  0  0  0
    8.0079  -27.6203   -9.6548 C   0  0  0  0  0  0  0  0  0  0  0  0
    8.8479  -25.2938  -10.3059 C   0  0  0  0  0  0  0  0  0  0  0  0
    9.7137  -27.3131  -11.1378 C   0  0  0  0  0  0  0  0  0  0  0  0
    6.1666  -27.9237   -8.0546 C   0  0  0  0  0  0  0  0  0  0  0  0
   13.4836  -27.3444  -11.2214 C   0  0  0  0  0  0  0  0  0  0  0  0
   12.6289  -26.3210  -11.9600 C   0  0  0  0  0  0  0  0  0  0  0  0
   12.6271  -28.2796  -10.3756 C   0  0  0  0  0  0  0  0  0  0  0  0
   11.5454  -26.9882  -12.8065 C   0  0  0  0  0  0  0  0  0  0  0  0
   11.5576  -28.9776  -11.2140 C   0  0  0  0  0  0  0  0  0  0  0  0
   10.7048  -28.0034  -12.0294 C   0  0  0  0  0  0  0  0  0  0  0  0
    6.1384  -30.4220   -9.9057 C   0  0  0  0  0  0  0  0  0  0  0  0
    7.2492  -29.8814   -9.0712 C   0  0  0  0  0  0  0  0  0  0  0  0
    8.8862  -28.1495  -10.4435 N   0  0  0  0  0  0  0  0  0  0  0  0
    9.7164  -26.0215  -11.0928 N   0  0  0  0  0  0  0  0  0  0  0  0
    6.1289  -26.5465   -7.9716 N   0  0  0  0  0  0  0  0  0  0  0  0
    7.1404  -28.4304   -8.9237 N   0  0  0  0  0  0  0  0  0  0  0  0
    6.5987  -24.4920   -8.3075 O   0  5  0  0  0  0  0  0  0  0  0  0
    5.3860  -28.6169   -7.3978 O   0  0  0  0  0  0  0  0  0  0  0  0
    8.9542  -23.6022  -10.3376 S   0  0  0  0  0  0  0  0  0  0  0  0
   14.0609  -27.9311  -11.9464 H   0  0  0  0  0  0  0  0  0  0  0  0
   14.2068  -26.8269  -10.5810 H   0  0  0  0  0  0  0  0  0  0  0  0
   12.1628  -25.6438  -11.2340 H   0  0  0  0  0  0  0  0  0  0  0  0
   13.2670  -25.7033  -12.6023 H   0  0  0  0  0  0  0  0  0  0  0  0
   13.2671  -29.0331   -9.9023 H   0  0  0  0  0  0  0  0  0  0  0  0
   12.1563  -27.7134   -9.5634 H   0  0  0  0  0  0  0  0  0  0  0  0
   10.9044  -26.2140  -13.2449 H   0  0  0  0  0  0  0  0  0  0  0  0
   12.0297  -27.5071  -13.6436 H   0  0  0  0  0  0  0  0  0  0  0  0
   12.0521  -29.6722  -11.9048 H   0  0  0  0  0  0  0  0  0  0  0  0
   10.9230  -29.5833  -10.5561 H   0  0  0  0  0  0  0  0  0  0  0  0
   10.1045  -28.5831  -12.7419 H   0  0  0  0  0  0  0  0  0  0  0  0
    6.1708  -29.9606  -10.9037 H   0  0  0  0  0  0  0  0  0  0  0  0
    6.2494  -31.5121  -10.0022 H   0  0  0  0  0  0  0  0  0  0  0  0
    5.1750  -30.1925   -9.4269 H   0  0  0  0  0  0  0  0  0  0  0  0
    7.2098  -30.3474   -8.0755 H   0  0  0  0  0  0  0  0  0  0  0  0
    8.2091  -30.1225   -9.5512 H   0  0  0  0  0  0  0  0  0  0  0  0
    5.4365  -26.1363   -7.3508 H   0  0  0  0  0  0  0  0  0  0  0  0
  1  2  2  0  0  0  0
  1  3  1  0  0  0  0
  1  4  1  0  0  0  0
  2 17  1  0  0  0  0
  2 19  1  0  0  0  0
  3 15  2  0  0  0  0
  3 18  1  0  0  0  0
  4 16  1  0  0  0  0
  4 21  2  0  0  0  0
  5 12  1  0  0  0  0
  5 15  1  0  0  0  0
  5 16  2  0  0  0  0
  6 17  1  0  0  0  0
  6 18  1  0  0  0  0
  6 20  2  0  0  0  0
  7  8  1  0  0  0  0
  7  9  1  0  0  0  0
  8 10  1  0  0  0  0
  9 11  1  0  0  0  0
 10 12  1  0  0  0  0
 11 12  1  0  0  0  0
 13 14  1  0  0  0  0
 14 18  1  0  0  0  0
  7 22  1  0  0  0  0
  7 23  1  0  0  0  0
  8 24  1  0  0  0  0
  8 25  1  0  0  0  0
  9 26  1  0  0  0  0
  9 27  1  0  0  0  0
 10 28  1  0  0  0  0
 10 29  1  0  0  0  0
 11 30  1  0  0  0  0
 11 31  1  0  0  0  0
 12 32  1  0  0  0  0
 13 33  1  0  0  0  0
 13 34  1  0  0  0  0
 13 35  1  0  0  0  0
 14 36  1  0  0  0  0
 14 37  1  0  0  0  0
 17 38  1  0  0  0  0
M  CHG  1  19  -1
M  END
> <Hybrid2>
-5.608645439147949

> <Hybrid2>
-5.234743

$$$$
C26531606
  -OEChem-02152218503D

 26 27  0     0  0  0  0  0  0999 V2000
   11.8614  -26.8390  -10.0170 C   0  0  0  0  0  0  0  0  0  0  0  0
   10.8737  -25.9204   -9.6620 C   0  0  0  0  0  0  0  0  0  0  0  0
   11.9761  -27.2633  -11.3408 C   0  0  0  0  0  0  0  0  0  0  0  0
   10.1151  -25.8503  -11.9548 C   0  0  0  0  0  0  0  0  0  0  0  0
    7.2541  -27.5586  -10.0442 C   0  0  0  0  0  0  0  0  0  0  0  0
    6.7725  -26.1802   -8.1669 C   0  0  0  0  0  0  0  0  0  0  0  0
   10.0005  -25.4260  -10.6309 C   0  0  0  0  0  0  0  0  0  0  0  0
   11.1028  -26.7689  -12.3097 C   0  0  0  0  0  0  0  0  0  0  0  0
    7.1479  -26.2851   -9.4965 C   0  0  0  0  0  0  0  0  0  0  0  0
    6.9854  -28.6726   -9.2568 C   0  0  0  0  0  0  0  0  0  0  0  0
    6.6175  -28.4609   -7.9378 C   0  0  0  0  0  0  0  0  0  0  0  0
    6.5036  -27.2390   -7.3706 N   0  0  0  0  0  0  0  0  0  0  0  0
    9.0467  -24.5385  -10.2882 N   0  5  0  0  0  0  0  0  0  0  0  0
    7.0965  -25.2415  -11.8272 O   0  0  0  0  0  0  0  0  0  0  0  0
    6.5983  -23.8227   -9.8866 O   0  0  0  0  0  0  0  0  0  0  0  0
   11.2159  -27.1818  -13.6018 O   0  0  0  0  0  0  0  0  0  0  0  0
    7.4879  -24.8158  -10.4851 S   0  0  0  0  0  0  0  0  0  0  0  0
    6.2540  -29.7375   -6.8398 Cl  0  0  0  0  0  0  0  0  0  0  0  0
    7.1390  -30.3919  -10.0324 Br  0  0  0  0  0  0  0  0  0  0  0  0
   12.5418  -27.2242   -9.2630 H   0  0  0  0  0  0  0  0  0  0  0  0
   10.7998  -25.6013   -8.6246 H   0  0  0  0  0  0  0  0  0  0  0  0
   12.7482  -27.9786  -11.6110 H   0  0  0  0  0  0  0  0  0  0  0  0
    9.4399  -25.4718  -12.7200 H   0  0  0  0  0  0  0  0  0  0  0  0
    7.5466  -27.6735  -11.0853 H   0  0  0  0  0  0  0  0  0  0  0  0
    6.6727  -25.2131   -7.6837 H   0  0  0  0  0  0  0  0  0  0  0  0
   10.5422  -26.7519  -14.1524 H   0  0  0  0  0  0  0  0  0  0  0  0
  1  2  1  0  0  0  0
  1  3  2  0  0  0  0
  2  7  2  0  0  0  0
  3  8  1  0  0  0  0
  4  7  1  0  0  0  0
  4  8  2  0  0  0  0
  5  9  1  0  0  0  0
  5 10  2  0  0  0  0
  6  9  2  0  0  0  0
  6 12  1  0  0  0  0
  7 13  1  0  0  0  0
  8 16  1  0  0  0  0
  9 17  1  0  0  0  0
 10 11  1  0  0  0  0
 10 19  1  0  0  0  0
 11 12  2  0  0  0  0
 11 18  1  0  0  0  0
 13 17  1  0  0  0  0
 14 17  2  0  0  0  0
 15 17  2  0  0  0  0
  1 20  1  0  0  0  0
  2 21  1  0  0  0  0
  3 22  1  0  0  0  0
  4 23  1  0  0  0  0
  5 24  1  0  0  0  0
  6 25  1  0  0  0  0
 16 26  1  0  0  0  0
M  CHG  1  13  -1
M  END
> <Hybrid2>
-2.8708245754241943

> <Hybrid2>
-2.870825

$$$$
C26531606
  -OEChem-02152218503D

 26 27  0     0  0  0  0  0  0999 V2000
   14.5571  -28.1946  -10.8357 C   0  0  0  0  0  0  0  0  0  0  0  0
   13.6519  -27.2698  -11.3562 C   0  0  0  0  0  0  0  0  0  0  0  0
   14.6433  -28.3861   -9.4567 C   0  0  0  0  0  0  0  0  0  0  0  0
   12.9192  -26.7276   -9.1188 C   0  0  0  0  0  0  0  0  0  0  0  0
    9.1754  -27.7387  -10.4935 C   0  0  0  0  0  0  0  0  0  0  0  0
    8.4720  -25.4683  -10.5756 C   0  0  0  0  0  0  0  0  0  0  0  0
   12.8330  -26.5363  -10.4978 C   0  0  0  0  0  0  0  0  0  0  0  0
   13.8244  -27.6525   -8.5983 C   0  0  0  0  0  0  0  0  0  0  0  0
    9.3815  -26.4429  -10.9534 C   0  0  0  0  0  0  0  0  0  0  0  0
    8.0816  -28.0165   -9.6813 C   0  0  0  0  0  0  0  0  0  0  0  0
    7.2303  -26.9714   -9.3603 C   0  0  0  0  0  0  0  0  0  0  0  0
    7.3979  -25.7000   -9.7881 N   0  0  0  0  0  0  0  0  0  0  0  0
   11.9586  -25.6432  -11.0005 N   0  5  0  0  0  0  0  0  0  0  0  0
   10.9971  -27.2897  -12.7413 O   0  0  0  0  0  0  0  0  0  0  0  0
   10.2671  -24.9473  -12.8232 O   0  0  0  0  0  0  0  0  0  0  0  0
   13.9075  -27.8407   -7.2528 O   0  0  0  0  0  0  0  0  0  0  0  0
   10.7882  -26.0428  -12.0084 S   0  0  0  0  0  0  0  0  0  0  0  0
    5.8358  -27.1576   -8.3662 Cl  0  0  0  0  0  0  0  0  0  0  0  0
    7.8294  -29.7904   -9.0723 Br  0  0  0  0  0  0  0  0  0  0  0  0
   15.1948  -28.7663  -11.5037 H   0  0  0  0  0  0  0  0  0  0  0  0
   13.5991  -27.1343  -12.4344 H   0  0  0  0  0  0  0  0  0  0  0  0
   15.3499  -29.1087   -9.0577 H   0  0  0  0  0  0  0  0  0  0  0  0
   12.2856  -26.1615   -8.4385 H   0  0  0  0  0  0  0  0  0  0  0  0
    9.8721  -28.5256  -10.7730 H   0  0  0  0  0  0  0  0  0  0  0  0
    8.5800  -24.4389  -10.9031 H   0  0  0  0  0  0  0  0  0  0  0  0
   13.2789  -27.2619   -6.7928 H   0  0  0  0  0  0  0  0  0  0  0  0
  1  2  1  0  0  0  0
  1  3  2  0  0  0  0
  2  7  2  0  0  0  0
  3  8  1  0  0  0  0
  4  7  1  0  0  0  0
  4  8  2  0  0  0  0
  5  9  1  0  0  0  0
  5 10  2  0  0  0  0
  6  9  2  0  0  0  0
  6 12  1  0  0  0  0
  7 13  1  0  0  0  0
  8 16  1  0  0  0  0
  9 17  1  0  0  0  0
 10 11  1  0  0  0  0
 10 19  1  0  0  0  0
 11 12  2  0  0  0  0
 11 18  1  0  0  0  0
 13 17  1  0  0  0  0
 14 17  2  0  0  0  0
 15 17  2  0  0  0  0
  1 20  1  0  0  0  0
  2 21  1  0  0  0  0
  3 22  1  0  0  0  0
  4 23  1  0  0  0  0
  5 24  1  0  0  0  0
  6 25  1  0  0  0  0
 16 26  1  0  0  0  0
M  CHG  1  13  -1
M  END
> <Hybrid2>
-2.8708245754241943

> <Hybrid2>
-2.767552

$$$$
C06379734
  -OEChem-02152218503D

 30 31  0     1  0  0  0  0  0999 V2000
    6.0844  -27.9564  -11.3625 C   0  0  0  0  0  0  0  0  0  0  0  0
    7.8684  -29.2110  -10.2934 C   0  0  0  0  0  0  0  0  0  0  0  0
   11.0221  -27.0986   -8.3873 C   0  0  0  0  0  0  0  0  0  0  0  0
   12.1584  -27.1582   -9.1940 C   0  0  0  0  0  0  0  0  0  0  0  0
    9.7593  -26.9844   -8.9686 C   0  0  0  0  0  0  0  0  0  0  0  0
   12.0320  -27.1035  -10.5820 C   0  0  0  0  0  0  0  0  0  0  0  0
    9.6328  -26.9297  -10.3567 C   0  0  0  0  0  0  0  0  0  0  0  0
    7.4908  -25.8990   -9.9657 C   0  0  0  0  0  0  0  0  0  0  0  0
   10.7692  -26.9893  -11.1634 C   0  0  0  0  0  0  0  0  0  0  0  0
    7.4480  -24.4919   -9.9630 C   0  0  0  0  0  0  0  0  0  0  0  0
    6.6903  -26.2689   -8.9127 C   0  0  0  0  0  0  0  0  0  0  0  0
    8.1306  -23.5655  -10.8837 C   0  0  0  0  0  0  0  0  0  0  0  0
    7.5481  -28.1609  -11.2850 C   0  0  0  0  0  0  0  0  0  0  0  0
    8.2596  -26.8072  -10.9341 C   0  0  2  0  0  0  0  0  0  0  0  0
    4.9371  -27.7939  -11.4283 N   0  0  0  0  0  0  0  0  0  0  0  0
    8.1243  -30.0354   -9.5177 N   0  0  0  0  0  0  0  0  0  0  0  0
    6.6809  -24.0012   -8.9859 N   0  0  0  0  0  0  0  0  0  0  0  0
    6.2342  -25.1061   -8.3648 N   0  0  0  0  0  0  0  0  0  0  0  0
    6.3217  -27.3064   -8.3963 O   0  5  0  0  0  0  0  0  0  0  0  0
   10.6485  -26.9154  -13.0546 Br  0  0  0  0  0  0  0  0  0  0  0  0
   11.1208  -27.1412   -7.3068 H   0  0  0  0  0  0  0  0  0  0  0  0
   13.1414  -27.2473   -8.7411 H   0  0  0  0  0  0  0  0  0  0  0  0
    8.8809  -26.9388   -8.3304 H   0  0  0  0  0  0  0  0  0  0  0  0
   12.9291  -27.1514  -11.1943 H   0  0  0  0  0  0  0  0  0  0  0  0
    7.5015  -23.3378  -11.7608 H   0  0  0  0  0  0  0  0  0  0  0  0
    8.3839  -22.6069  -10.3976 H   0  0  0  0  0  0  0  0  0  0  0  0
    9.0853  -23.9773  -11.2563 H   0  0  0  0  0  0  0  0  0  0  0  0
    7.8813  -28.5174  -12.2672 H   0  0  0  0  0  0  0  0  0  0  0  0
    8.3083  -26.2544  -11.8968 H   0  0  0  0  0  0  0  0  0  0  0  0
    5.6175  -24.9926   -7.5701 H   0  0  0  0  0  0  0  0  0  0  0  0
  1 13  1  0  0  0  0
  1 15  3  0  0  0  0
  2 13  1  0  0  0  0
  2 16  3  0  0  0  0
  3  4  1  0  0  0  0
  3  5  2  0  0  0  0
  4  6  2  0  0  0  0
  5  7  1  0  0  0  0
  6  9  1  0  0  0  0
  7  9  2  0  0  0  0
  7 14  1  0  0  0  0
  8 10  1  0  0  0  0
  8 11  2  0  0  0  0
  8 14  1  0  0  0  0
  9 20  1  0  0  0  0
 10 12  1  0  0  0  0
 10 17  2  0  0  0  0
 11 18  1  0  0  0  0
 11 19  1  0  0  0  0
 13 14  1  0  0  0  0
 17 18  1  0  0  0  0
  3 21  1  0  0  0  0
  4 22  1  0  0  0  0
  5 23  1  0  0  0  0
  6 24  1  0  0  0  0
 12 25  1  0  0  0  0
 12 26  1  0  0  0  0
 12 27  1  0  0  0  0
 13 28  1  0  0  0  0
 14 29  1  0  0  0  0
 18 30  1  0  0  0  0
M  CHG  1  19  -1
M  END
> <Hybrid2>
-4.153751373291016

> <Hybrid2>
-4.153751

$$$$
C06379734
  -OEChem-02152218503D

 30 31  0     1  0  0  0  0  0999 V2000
    7.6269  -29.3263   -9.5371 C   0  0  0  0  0  0  0  0  0  0  0  0
    6.2480  -27.4159   -8.9467 C   0  0  0  0  0  0  0  0  0  0  0  0
   11.8436  -27.1005   -9.0701 C   0  0  0  0  0  0  0  0  0  0  0  0
   12.5851  -27.0303  -10.2494 C   0  0  0  0  0  0  0  0  0  0  0  0
   10.4497  -27.1118   -9.1223 C   0  0  0  0  0  0  0  0  0  0  0  0
   11.9328  -26.9714  -11.4809 C   0  0  0  0  0  0  0  0  0  0  0  0
    9.7974  -27.0528  -10.3538 C   0  0  0  0  0  0  0  0  0  0  0  0
    7.8820  -25.5950  -10.4495 C   0  0  0  0  0  0  0  0  0  0  0  0
   10.5389  -26.9826  -11.5332 C   0  0  0  0  0  0  0  0  0  0  0  0
    7.1793  -24.9673  -11.4955 C   0  0  0  0  0  0  0  0  0  0  0  0
    8.0999  -24.5949   -9.5336 C   0  0  0  0  0  0  0  0  0  0  0  0
    6.6878  -25.5740  -12.7453 C   0  0  0  0  0  0  0  0  0  0  0  0
    7.6276  -27.8845   -9.2032 C   0  0  0  0  0  0  0  0  0  0  0  0
    8.3028  -27.0676  -10.3602 C   0  0  2  0  0  0  0  0  0  0  0  0
    7.6317  -30.4573   -9.7974 N   0  0  0  0  0  0  0  0  0  0  0  0
    5.1676  -27.0443   -8.7429 N   0  0  0  0  0  0  0  0  0  0  0  0
    6.9649  -23.6690  -11.2663 N   0  0  0  0  0  0  0  0  0  0  0  0
    7.5361  -23.4728  -10.0658 N   0  0  0  0  0  0  0  0  0  0  0  0
    8.6338  -24.4842   -8.4465 O   0  5  0  0  0  0  0  0  0  0  0  0
    9.6977  -26.8976  -13.2308 Br  0  0  0  0  0  0  0  0  0  0  0  0
   12.3516  -27.1463   -8.1116 H   0  0  0  0  0  0  0  0  0  0  0  0
   13.6703  -27.0217  -10.2084 H   0  0  0  0  0  0  0  0  0  0  0  0
    9.8821  -27.1667   -8.1971 H   0  0  0  0  0  0  0  0  0  0  0  0
   12.5278  -26.9170  -12.3893 H   0  0  0  0  0  0  0  0  0  0  0  0
    5.6643  -25.9670  -12.6232 H   0  0  0  0  0  0  0  0  0  0  0  0
    6.6698  -24.8512  -13.5799 H   0  0  0  0  0  0  0  0  0  0  0  0
    7.3273  -26.4091  -13.0821 H   0  0  0  0  0  0  0  0  0  0  0  0
    8.1985  -27.7638   -8.2746 H   0  0  0  0  0  0  0  0  0  0  0  0
    7.9390  -27.5458  -11.2949 H   0  0  0  0  0  0  0  0  0  0  0  0
    7.5036  -22.5433   -9.6661 H   0  0  0  0  0  0  0  0  0  0  0  0
  1 13  1  0  0  0  0
  1 15  3  0  0  0  0
  2 13  1  0  0  0  0
  2 16  3  0  0  0  0
  3  4  1  0  0  0  0
  3  5  2  0  0  0  0
  4  6  2  0  0  0  0
  5  7  1  0  0  0  0
  6  9  1  0  0  0  0
  7  9  2  0  0  0  0
  7 14  1  0  0  0  0
  8 10  1  0  0  0  0
  8 11  2  0  0  0  0
  8 14  1  0  0  0  0
  9 20  1  0  0  0  0
 10 12  1  0  0  0  0
 10 17  2  0  0  0  0
 11 18  1  0  0  0  0
 11 19  1  0  0  0  0
 13 14  1  0  0  0  0
 17 18  1  0  0  0  0
  3 21  1  0  0  0  0
  4 22  1  0  0  0  0
  5 23  1  0  0  0  0
  6 24  1  0  0  0  0
 12 25  1  0  0  0  0
 12 26  1  0  0  0  0
 12 27  1  0  0  0  0
 13 28  1  0  0  0  0
 14 29  1  0  0  0  0
 18 30  1  0  0  0  0
M  CHG  1  19  -1
M  END
> <Hybrid2>
-4.153751373291016

> <Hybrid2>
-3.517518

$$$$
C36664777
  -OEChem-02152218503D

 36 38  0     1  0  0  0  0  0999 V2000
   10.9788  -26.5663  -11.0352 C   0  0  0  0  0  0  0  0  0  0  0  0
   12.3245  -26.9382  -10.7946 C   0  0  0  0  0  0  0  0  0  0  0  0
   10.4444  -26.1560   -9.8338 C   0  0  0  0  0  0  0  0  0  0  0  0
   12.5715  -26.7439   -9.4535 C   0  0  0  0  0  0  0  0  0  0  0  0
    9.0856  -25.6754   -9.5570 C   0  0  0  0  0  0  0  0  0  0  0  0
    6.0190  -25.6778  -10.1300 C   0  0  0  0  0  0  0  0  0  0  0  0
    6.7812  -30.5842   -9.2520 C   0  0  0  0  0  0  0  0  0  0  0  0
    8.0430  -30.3239  -10.0656 C   0  0  0  0  0  0  0  0  0  0  0  0
    6.8365  -29.8771   -7.9024 C   0  0  0  0  0  0  0  0  0  0  0  0
    8.2484  -28.8309  -10.2921 C   0  0  0  0  0  0  0  0  0  0  0  0
    6.0347  -27.4973   -8.4817 C   0  0  0  0  0  0  0  0  0  0  0  0
    6.7475  -26.2156   -8.9160 C   0  0  1  0  0  0  0  0  0  0  0  0
    7.1799  -28.3934   -7.9970 C   0  0  2  0  0  0  0  0  0  0  0  0
    8.3169  -28.0544   -8.9694 C   0  0  2  0  0  0  0  0  0  0  0  0
   11.4215  -26.2685   -8.8794 N   0  0  0  0  0  0  0  0  0  0  0  0
    8.1257  -26.6145   -9.2014 N   0  0  0  0  0  0  0  0  0  0  0  0
    4.7773  -25.9031  -10.1572 O   0  5  0  0  0  0  0  0  0  0  0  0
    8.8921  -24.4660   -9.6655 O   0  0  0  0  0  0  0  0  0  0  0  0
    6.7511  -25.0710  -10.9613 O   0  0  0  0  0  0  0  0  0  0  0  0
   13.3984  -27.5130  -11.9782 Cl  0  0  0  0  0  0  0  0  0  0  0  0
   13.9344  -26.9711   -8.4727 Cl  0  0  0  0  0  0  0  0  0  0  0  0
   10.4541  -26.5936  -11.9811 H   0  0  0  0  0  0  0  0  0  0  0  0
    5.9019  -30.2496   -9.8149 H   0  0  0  0  0  0  0  0  0  0  0  0
    6.6625  -31.6623   -9.0937 H   0  0  0  0  0  0  0  0  0  0  0  0
    8.9138  -30.7437   -9.5477 H   0  0  0  0  0  0  0  0  0  0  0  0
    7.9672  -30.8344  -11.0323 H   0  0  0  0  0  0  0  0  0  0  0  0
    5.8857  -30.0124   -7.3739 H   0  0  0  0  0  0  0  0  0  0  0  0
    7.6049  -30.3688   -7.2913 H   0  0  0  0  0  0  0  0  0  0  0  0
    9.1679  -28.6736  -10.8675 H   0  0  0  0  0  0  0  0  0  0  0  0
    7.4250  -28.4577  -10.9142 H   0  0  0  0  0  0  0  0  0  0  0  0
    5.3220  -27.3026   -7.6730 H   0  0  0  0  0  0  0  0  0  0  0  0
    5.4807  -27.9628   -9.3052 H   0  0  0  0  0  0  0  0  0  0  0  0
    6.7548  -25.4615   -8.1223 H   0  0  0  0  0  0  0  0  0  0  0  0
    7.4639  -28.0488   -6.9919 H   0  0  0  0  0  0  0  0  0  0  0  0
    9.2865  -28.2353   -8.4911 H   0  0  0  0  0  0  0  0  0  0  0  0
   11.3143  -26.0373   -7.9012 H   0  0  0  0  0  0  0  0  0  0  0  0
  1  2  1  0  0  0  0
  1  3  2  0  0  0  0
  2  4  2  0  0  0  0
  2 20  1  0  0  0  0
  3  5  1  0  0  0  0
  3 15  1  0  0  0  0
  4 15  1  0  0  0  0
  4 21  1  0  0  0  0
  5 16  1  0  0  0  0
  5 18  2  0  0  0  0
  6 12  1  0  0  0  0
  6 17  1  0  0  0  0
  6 19  2  0  0  0  0
  7  8  1  0  0  0  0
  7  9  1  0  0  0  0
  8 10  1  0  0  0  0
  9 13  1  0  0  0  0
 10 14  1  0  0  0  0
 11 12  1  0  0  0  0
 11 13  1  0  0  0  0
 12 16  1  0  0  0  0
 13 14  1  0  0  0  0
 14 16  1  0  0  0  0
  1 22  1  0  0  0  0
  7 23  1  0  0  0  0
  7 24  1  0  0  0  0
  8 25  1  0  0  0  0
  8 26  1  0  0  0  0
  9 27  1  0  0  0  0
  9 28  1  0  0  0  0
 10 29  1  0  0  0  0
 10 30  1  0  0  0  0
 11 31  1  0  0  0  0
 11 32  1  0  0  0  0
 12 33  1  0  0  0  0
 13 34  1  0  0  0  0
 14 35  1  0  0  0  0
 15 36  1  0  0  0  0
M  CHG  1  17  -1
M  END
> <Hybrid2>
-6.166215896606445

> <Hybrid2>
-6.166216

$$$$
C36664777
  -OEChem-02152218503D

 36 38  0     1  0  0  0  0  0999 V2000
   11.2867  -26.4122  -10.4696 C   0  0  0  0  0  0  0  0  0  0  0  0
   12.0492  -26.8798  -11.5683 C   0  0  0  0  0  0  0  0  0  0  0  0
   10.0119  -26.1653  -10.9291 C   0  0  0  0  0  0  0  0  0  0  0  0
   11.2171  -26.9042  -12.6658 C   0  0  0  0  0  0  0  0  0  0  0  0
    8.8525  -25.6685  -10.1787 C   0  0  0  0  0  0  0  0  0  0  0  0
    5.7761  -25.5391   -9.6772 C   0  0  0  0  0  0  0  0  0  0  0  0
    6.5285  -30.5181   -9.4172 C   0  0  0  0  0  0  0  0  0  0  0  0
    7.4554  -30.2326  -10.5924 C   0  0  0  0  0  0  0  0  0  0  0  0
    7.0715  -29.9183   -8.1249 C   0  0  0  0  0  0  0  0  0  0  0  0
    7.6514  -28.7332  -10.7816 C   0  0  0  0  0  0  0  0  0  0  0  0
    6.2486  -27.4791   -8.2486 C   0  0  0  0  0  0  0  0  0  0  0  0
    6.8408  -26.1889   -8.8181 C   0  0  1  0  0  0  0  0  0  0  0  0
    7.4410  -28.4421   -8.2377 C   0  0  2  0  0  0  0  0  0  0  0  0
    8.2014  -28.0625   -9.5148 C   0  0  2  0  0  0  0  0  0  0  0  0
    9.9813  -26.4676  -12.2655 N   0  0  0  0  0  0  0  0  0  0  0  0
    8.0197  -26.6042   -9.5780 N   0  0  0  0  0  0  0  0  0  0  0  0
    4.5875  -25.7260   -9.2959 O   0  5  0  0  0  0  0  0  0  0  0  0
    8.6981  -24.4493  -10.1396 O   0  0  0  0  0  0  0  0  0  0  0  0
    6.2173  -24.8917  -10.6679 O   0  0  0  0  0  0  0  0  0  0  0  0
   13.6884  -27.3182  -11.4948 Cl  0  0  0  0  0  0  0  0  0  0  0  0
   11.4368  -27.3429  -14.2876 Cl  0  0  0  0  0  0  0  0  0  0  0  0
   11.6279  -26.2704   -9.4526 H   0  0  0  0  0  0  0  0  0  0  0  0
    5.5301  -30.1163   -9.6266 H   0  0  0  0  0  0  0  0  0  0  0  0
    6.4130  -31.6014   -9.2955 H   0  0  0  0  0  0  0  0  0  0  0  0
    8.4261  -30.7157  -10.4276 H   0  0  0  0  0  0  0  0  0  0  0  0
    7.0322  -30.6652  -11.5060 H   0  0  0  0  0  0  0  0  0  0  0  0
    6.3478  -30.0662   -7.3149 H   0  0  0  0  0  0  0  0  0  0  0  0
    7.9733  -30.4772   -7.8424 H   0  0  0  0  0  0  0  0  0  0  0  0
    8.3310  -28.5588  -11.6236 H   0  0  0  0  0  0  0  0  0  0  0  0
    6.6877  -28.2900  -11.0632 H   0  0  0  0  0  0  0  0  0  0  0  0
    5.8605  -27.3264   -7.2357 H   0  0  0  0  0  0  0  0  0  0  0  0
    5.4263  -27.8641   -8.8628 H   0  0  0  0  0  0  0  0  0  0  0  0
    7.1542  -25.4983   -8.0285 H   0  0  0  0  0  0  0  0  0  0  0  0
    8.0641  -28.1837   -7.3690 H   0  0  0  0  0  0  0  0  0  0  0  0
    9.2643  -28.3072   -9.4057 H   0  0  0  0  0  0  0  0  0  0  0  0
    9.1734  -26.3828  -12.8669 H   0  0  0  0  0  0  0  0  0  0  0  0
  1  2  1  0  0  0  0
  1  3  2  0  0  0  0
  2  4  2  0  0  0  0
  2 20  1  0  0  0  0
  3  5  1  0  0  0  0
  3 15  1  0  0  0  0
  4 15  1  0  0  0  0
  4 21  1  0  0  0  0
  5 16  1  0  0  0  0
  5 18  2  0  0  0  0
  6 12  1  0  0  0  0
  6 17  1  0  0  0  0
  6 19  2  0  0  0  0
  7  8  1  0  0  0  0
  7  9  1  0  0  0  0
  8 10  1  0  0  0  0
  9 13  1  0  0  0  0
 10 14  1  0  0  0  0
 11 12  1  0  0  0  0
 11 13  1  0  0  0  0
 12 16  1  0  0  0  0
 13 14  1  0  0  0  0
 14 16  1  0  0  0  0
  1 22  1  0  0  0  0
  7 23  1  0  0  0  0
  7 24  1  0  0  0  0
  8 25  1  0  0  0  0
  8 26  1  0  0  0  0
  9 27  1  0  0  0  0
  9 28  1  0  0  0  0
 10 29  1  0  0  0  0
 10 30  1  0  0  0  0
 11 31  1  0  0  0  0
 11 32  1  0  0  0  0
 12 33  1  0  0  0  0
 13 34  1  0  0  0  0
 14 35  1  0  0  0  0
 15 36  1  0  0  0  0
M  CHG  1  17  -1
M  END
> <Hybrid2>
-6.166215896606445

> <Hybrid2>
-4.371117

$$$$
C37296635
  -OEChem-02152218503D

 39 40  0     1  0  0  0  0  0999 V2000
    5.9960  -28.2753   -8.9601 C   0  0  0  0  0  0  0  0  0  0  0  0
    6.3179  -25.8985   -8.6705 C   0  0  0  0  0  0  0  0  0  0  0  0
    7.2521  -28.3726   -9.5586 C   0  0  0  0  0  0  0  0  0  0  0  0
    7.5741  -25.9957   -9.2690 C   0  0  0  0  0  0  0  0  0  0  0  0
    8.0412  -27.2327   -9.7130 C   0  0  0  0  0  0  0  0  0  0  0  0
    5.5288  -27.0383   -8.5161 C   0  0  0  0  0  0  0  0  0  0  0  0
   12.4803  -24.8330  -12.4554 C   0  0  0  0  0  0  0  0  0  0  0  0
   10.5496  -27.0035   -9.7592 C   0  0  0  0  0  0  0  0  0  0  0  0
   14.0634  -26.6620  -10.5039 C   0  0  0  0  0  0  0  0  0  0  0  0
   14.1290  -26.6158  -12.0282 C   0  0  0  0  0  0  0  0  0  0  0  0
   12.9465  -27.5802  -10.0289 C   0  0  0  0  0  0  0  0  0  0  0  0
   11.6296  -27.1404  -12.0869 C   0  0  0  0  0  0  0  0  0  0  0  0
   12.7764  -26.3108  -12.6618 C   0  0  1  0  0  0  0  0  0  0  0  0
    7.7255  -29.7116  -10.0242 C   0  0  0  0  0  0  0  0  0  0  0  0
    8.3970  -24.7571   -9.4197 C   0  0  0  0  0  0  0  0  0  0  0  0
   11.6564  -27.2088  -10.6151 N   0  0  0  0  0  0  0  0  0  0  0  0
    9.3165  -27.3312  -10.3227 N   0  0  0  0  0  0  0  0  0  0  0  0
   12.3763  -24.4670  -11.2519 O   0  5  0  0  0  0  0  0  0  0  0  0
   12.3764  -24.1600  -13.5191 O   0  0  0  0  0  0  0  0  0  0  0  0
   10.6880  -26.5924   -8.6043 O   0  0  0  0  0  0  0  0  0  0  0  0
    3.8267  -26.9070   -7.7044 Br  0  0  0  0  0  0  0  0  0  0  0  0
    5.3855  -29.1677   -8.8430 H   0  0  0  0  0  0  0  0  0  0  0  0
    5.9594  -24.9312   -8.3259 H   0  0  0  0  0  0  0  0  0  0  0  0
   15.0202  -27.0178  -10.1113 H   0  0  0  0  0  0  0  0  0  0  0  0
   13.9061  -25.6537  -10.1144 H   0  0  0  0  0  0  0  0  0  0  0  0
   14.8785  -25.8603  -12.3355 H   0  0  0  0  0  0  0  0  0  0  0  0
   14.5168  -27.5793  -12.4093 H   0  0  0  0  0  0  0  0  0  0  0  0
   13.2295  -28.6053  -10.2703 H   0  0  0  0  0  0  0  0  0  0  0  0
   12.8341  -27.5130   -8.9407 H   0  0  0  0  0  0  0  0  0  0  0  0
   10.6540  -26.7088  -12.3602 H   0  0  0  0  0  0  0  0  0  0  0  0
   11.6449  -28.1491  -12.5231 H   0  0  0  0  0  0  0  0  0  0  0  0
   12.8403  -26.4857  -13.7694 H   0  0  0  0  0  0  0  0  0  0  0  0
    7.4200  -29.8812  -11.0628 H   0  0  0  0  0  0  0  0  0  0  0  0
    8.8177  -29.7879   -9.9632 H   0  0  0  0  0  0  0  0  0  0  0  0
    7.3132  -30.5149   -9.4018 H   0  0  0  0  0  0  0  0  0  0  0  0
    9.0309  -24.6139   -8.5374 H   0  0  0  0  0  0  0  0  0  0  0  0
    9.0389  -24.8146  -10.3069 H   0  0  0  0  0  0  0  0  0  0  0  0
    7.7607  -23.8723   -9.5417 H   0  0  0  0  0  0  0  0  0  0  0  0
    9.3313  -27.6935  -11.3146 H   0  0  0  0  0  0  0  0  0  0  0  0
  1  3  1  0  0  0  0
  1  6  2  0  0  0  0
  2  4  2  0  0  0  0
  2  6  1  0  0  0  0
  3  5  2  0  0  0  0
  3 14  1  0  0  0  0
  4  5  1  0  0  0  0
  4 15  1  0  0  0  0
  5 17  1  0  0  0  0
  6 21  1  0  0  0  0
  7 13  1  0  0  0  0
  7 18  1  0  0  0  0
  7 19  2  0  0  0  0
  8 16  1  0  0  0  0
  8 17  1  0  0  0  0
  8 20  2  0  0  0  0
  9 10  1  0  0  0  0
  9 11  1  0  0  0  0
 10 13  1  0  0  0  0
 11 16  1  0  0  0  0
 12 13  1  0  0  0  0
 12 16  1  0  0  0  0
  1 22  1  0  0  0  0
  2 23  1  0  0  0  0
  9 24  1  0  0  0  0
  9 25  1  0  0  0  0
 10 26  1  0  0  0  0
 10 27  1  0  0  0  0
 11 28  1  0  0  0  0
 11 29  1  0  0  0  0
 12 30  1  0  0  0  0
 12 31  1  0  0  0  0
 13 32  1  0  0  0  0
 14 33  1  0  0  0  0
 14 34  1  0  0  0  0
 14 35  1  0  0  0  0
 15 36  1  0  0  0  0
 15 37  1  0  0  0  0
 15 38  1  0  0  0  0
 17 39  1  0  0  0  0
M  CHG  1  18  -1
M  END
> <Hybrid2>
-4.9588422775268555

> <Hybrid2>
-4.958842

$$$$
C37296635
  -OEChem-02152218503D

 39 40  0     1  0  0  0  0  0999 V2000
    6.3630  -28.3756   -9.2589 C   0  0  0  0  0  0  0  0  0  0  0  0
    6.6849  -25.9987   -8.9694 C   0  0  0  0  0  0  0  0  0  0  0  0
    7.6192  -28.4728   -9.8574 C   0  0  0  0  0  0  0  0  0  0  0  0
    7.9411  -26.0959   -9.5678 C   0  0  0  0  0  0  0  0  0  0  0  0
    8.4083  -27.3330  -10.0119 C   0  0  0  0  0  0  0  0  0  0  0  0
    5.8959  -27.1385   -8.8149 C   0  0  0  0  0  0  0  0  0  0  0  0
   12.8474  -24.9332  -12.7542 C   0  0  0  0  0  0  0  0  0  0  0  0
   10.9166  -27.1038  -10.0581 C   0  0  0  0  0  0  0  0  0  0  0  0
   14.4304  -26.7623  -10.8028 C   0  0  0  0  0  0  0  0  0  0  0  0
   14.4960  -26.7161  -12.3270 C   0  0  0  0  0  0  0  0  0  0  0  0
   13.3135  -27.6805  -10.3277 C   0  0  0  0  0  0  0  0  0  0  0  0
   11.9966  -27.2407  -12.3858 C   0  0  0  0  0  0  0  0  0  0  0  0
   13.1434  -26.4111  -12.9606 C   0  0  1  0  0  0  0  0  0  0  0  0
    8.0925  -29.8118  -10.3230 C   0  0  0  0  0  0  0  0  0  0  0  0
    8.7641  -24.8574   -9.7185 C   0  0  0  0  0  0  0  0  0  0  0  0
   12.0235  -27.3091  -10.9139 N   0  0  0  0  0  0  0  0  0  0  0  0
    9.6835  -27.4315  -10.6215 N   0  0  0  0  0  0  0  0  0  0  0  0
   12.7433  -24.5672  -11.5507 O   0  5  0  0  0  0  0  0  0  0  0  0
   12.7434  -24.2603  -13.8180 O   0  0  0  0  0  0  0  0  0  0  0  0
   11.0550  -26.6927   -8.9031 O   0  0  0  0  0  0  0  0  0  0  0  0
    4.1937  -27.0073   -8.0032 Br  0  0  0  0  0  0  0  0  0  0  0  0
    5.7525  -29.2680   -9.1418 H   0  0  0  0  0  0  0  0  0  0  0  0
    6.3264  -25.0315   -8.6247 H   0  0  0  0  0  0  0  0  0  0  0  0
   15.3873  -27.1181  -10.4102 H   0  0  0  0  0  0  0  0  0  0  0  0
   14.2731  -25.7540  -10.4132 H   0  0  0  0  0  0  0  0  0  0  0  0
   15.2455  -25.9605  -12.6343 H   0  0  0  0  0  0  0  0  0  0  0  0
   14.8838  -27.6796  -12.7081 H   0  0  0  0  0  0  0  0  0  0  0  0
   13.5965  -28.7055  -10.5691 H   0  0  0  0  0  0  0  0  0  0  0  0
   13.2011  -27.6133   -9.2395 H   0  0  0  0  0  0  0  0  0  0  0  0
   11.0210  -26.8091  -12.6590 H   0  0  0  0  0  0  0  0  0  0  0  0
   12.0119  -28.2494  -12.8220 H   0  0  0  0  0  0  0  0  0  0  0  0
   13.2073  -26.5860  -14.0683 H   0  0  0  0  0  0  0  0  0  0  0  0
    7.7870  -29.9815  -11.3616 H   0  0  0  0  0  0  0  0  0  0  0  0
    9.1847  -29.8881  -10.2620 H   0  0  0  0  0  0  0  0  0  0  0  0
    7.6802  -30.6151   -9.7006 H   0  0  0  0  0  0  0  0  0  0  0  0
    9.3979  -24.7141   -8.8363 H   0  0  0  0  0  0  0  0  0  0  0  0
    9.4060  -24.9149  -10.6057 H   0  0  0  0  0  0  0  0  0  0  0  0
    8.1277  -23.9725   -9.8406 H   0  0  0  0  0  0  0  0  0  0  0  0
    9.6983  -27.7938  -11.6134 H   0  0  0  0  0  0  0  0  0  0  0  0
  1  3  1  0  0  0  0
  1  6  2  0  0  0  0
  2  4  2  0  0  0  0
  2  6  1  0  0  0  0
  3  5  2  0  0  0  0
  3 14  1  0  0  0  0
  4  5  1  0  0  0  0
  4 15  1  0  0  0  0
  5 17  1  0  0  0  0
  6 21  1  0  0  0  0
  7 13  1  0  0  0  0
  7 18  1  0  0  0  0
  7 19  2  0  0  0  0
  8 16  1  0  0  0  0
  8 17  1  0  0  0  0
  8 20  2  0  0  0  0
  9 10  1  0  0  0  0
  9 11  1  0  0  0  0
 10 13  1  0  0  0  0
 11 16  1  0  0  0  0
 12 13  1  0  0  0  0
 12 16  1  0  0  0  0
  1 22  1  0  0  0  0
  2 23  1  0  0  0  0
  9 24  1  0  0  0  0
  9 25  1  0  0  0  0
 10 26  1  0  0  0  0
 10 27  1  0  0  0  0
 11 28  1  0  0  0  0
 11 29  1  0  0  0  0
 12 30  1  0  0  0  0
 12 31  1  0  0  0  0
 13 32  1  0  0  0  0
 14 33  1  0  0  0  0
 14 34  1  0  0  0  0
 14 35  1  0  0  0  0
 15 36  1  0  0  0  0
 15 37  1  0  0  0  0
 15 38  1  0  0  0  0
 17 39  1  0  0  0  0
M  CHG  1  18  -1
M  END
> <Hybrid2>
-4.9588422775268555

> <Hybrid2>
-4.145657

$$$$
C37465587
  -OEChem-02152218503D

 29 30  0     0  0  0  0  0  0999 V2000
    9.9750  -26.4398  -10.3805 C   0  0  0  0  0  0  0  0  0  0  0  0
    8.6429  -25.9460  -10.4887 C   0  0  0  0  0  0  0  0  0  0  0  0
   10.6301  -26.4310  -11.5923 C   0  0  0  0  0  0  0  0  0  0  0  0
    8.3307  -25.5783  -11.7792 C   0  0  0  0  0  0  0  0  0  0  0  0
   12.0732  -26.9031  -11.7961 C   0  0  0  0  0  0  0  0  0  0  0  0
    6.1760  -30.7491   -9.2475 C   0  0  0  0  0  0  0  0  0  0  0  0
    7.6899  -30.5354   -9.3318 C   0  0  0  0  0  0  0  0  0  0  0  0
    5.5446  -29.3729   -9.4404 C   0  0  0  0  0  0  0  0  0  0  0  0
    7.8922  -29.0412   -9.5696 C   0  0  0  0  0  0  0  0  0  0  0  0
    6.6345  -28.4103   -8.9845 C   0  0  0  0  0  0  0  0  0  0  0  0
    6.4171  -27.0532   -9.4526 N   0  0  0  0  0  0  0  0  0  0  0  0
   12.5254  -26.8301  -12.9700 O   0  5  0  0  0  0  0  0  0  0  0  0
   12.6754  -27.3213  -10.7713 O   0  0  0  0  0  0  0  0  0  0  0  0
    8.3020  -26.2070   -7.9147 O   0  0  0  0  0  0  0  0  0  0  0  0
    6.9022  -24.5420   -9.1765 O   0  0  0  0  0  0  0  0  0  0  0  0
    9.6404  -25.8291  -12.8534 S   0  0  0  0  0  0  0  0  0  0  0  0
    7.5541  -25.8353   -9.1005 S   0  0  0  0  0  0  0  0  0  0  0  0
    6.6615  -24.8710  -12.3622 Br  0  0  0  0  0  0  0  0  0  0  0  0
   10.4313  -26.7847   -9.4606 H   0  0  0  0  0  0  0  0  0  0  0  0
    5.8230  -31.4586  -10.0027 H   0  0  0  0  0  0  0  0  0  0  0  0
    5.9117  -31.1557   -8.2645 H   0  0  0  0  0  0  0  0  0  0  0  0
    8.1602  -30.8387   -8.3893 H   0  0  0  0  0  0  0  0  0  0  0  0
    8.1421  -31.1306  -10.1315 H   0  0  0  0  0  0  0  0  0  0  0  0
    5.2970  -29.2206  -10.4986 H   0  0  0  0  0  0  0  0  0  0  0  0
    4.6201  -29.2577   -8.8659 H   0  0  0  0  0  0  0  0  0  0  0  0
    8.8054  -28.6672   -9.0959 H   0  0  0  0  0  0  0  0  0  0  0  0
    7.9725  -28.8402  -10.6455 H   0  0  0  0  0  0  0  0  0  0  0  0
    6.6952  -28.4114   -7.8701 H   0  0  0  0  0  0  0  0  0  0  0  0
    5.8278  -26.9568  -10.2868 H   0  0  0  0  0  0  0  0  0  0  0  0
  1  2  1  0  0  0  0
  1  3  2  0  0  0  0
  2  4  2  0  0  0  0
  2 17  1  0  0  0  0
  3  5  1  0  0  0  0
  3 16  1  0  0  0  0
  4 16  1  0  0  0  0
  4 18  1  0  0  0  0
  5 12  1  0  0  0  0
  5 13  2  0  0  0  0
  6  7  1  0  0  0  0
  6  8  1  0  0  0  0
  7  9  1  0  0  0  0
  8 10  1  0  0  0  0
  9 10  1  0  0  0  0
 10 11  1  0  0  0  0
 11 17  1  0  0  0  0
 14 17  2  0  0  0  0
 15 17  2  0  0  0  0
  1 19  1  0  0  0  0
  6 20  1  0  0  0  0
  6 21  1  0  0  0  0
  7 22  1  0  0  0  0
  7 23  1  0  0  0  0
  8 24  1  0  0  0  0
  8 25  1  0  0  0  0
  9 26  1  0  0  0  0
  9 27  1  0  0  0  0
 10 28  1  0  0  0  0
 11 29  1  0  0  0  0
M  CHG  1  12  -1
M  END
> <Hybrid2>
-4.303236961364746

> <Hybrid2>
-4.303237

$$$$
C37465587
  -OEChem-02152218503D

 29 30  0     0  0  0  0  0  0999 V2000
    9.5462  -26.2748  -11.6900 C   0  0  0  0  0  0  0  0  0  0  0  0
    9.1102  -26.2994  -10.3337 C   0  0  0  0  0  0  0  0  0  0  0  0
   10.9015  -26.4947  -11.8019 C   0  0  0  0  0  0  0  0  0  0  0  0
   10.1489  -26.5375   -9.4606 C   0  0  0  0  0  0  0  0  0  0  0  0
   11.6634  -26.5261  -13.1306 C   0  0  0  0  0  0  0  0  0  0  0  0
    5.2122  -30.1417   -9.2640 C   0  0  0  0  0  0  0  0  0  0  0  0
    6.5906  -30.6624   -9.6767 C   0  0  0  0  0  0  0  0  0  0  0  0
    5.4719  -28.9668   -8.3228 C   0  0  0  0  0  0  0  0  0  0  0  0
    7.6066  -29.7725   -8.9628 C   0  0  0  0  0  0  0  0  0  0  0  0
    6.8648  -28.4650   -8.6955 C   0  0  0  0  0  0  0  0  0  0  0  0
    6.8148  -27.6400   -9.9005 N   0  0  0  0  0  0  0  0  0  0  0  0
   12.9033  -26.7396  -13.0598 O   0  5  0  0  0  0  0  0  0  0  0  0
   10.9804  -26.3351  -14.1721 O   0  0  0  0  0  0  0  0  0  0  0  0
    7.3992  -25.5518   -8.5106 O   0  0  0  0  0  0  0  0  0  0  0  0
    6.8013  -25.2864  -10.9389 O   0  0  0  0  0  0  0  0  0  0  0  0
   11.6424  -26.7298  -10.2761 S   0  0  0  0  0  0  0  0  0  0  0  0
    7.4221  -26.0493   -9.8729 S   0  0  0  0  0  0  0  0  0  0  0  0
   10.0063  -26.6500   -7.5651 Br  0  0  0  0  0  0  0  0  0  0  0  0
    8.8993  -26.1042  -12.5419 H   0  0  0  0  0  0  0  0  0  0  0  0
    4.6173  -29.8339  -10.1293 H   0  0  0  0  0  0  0  0  0  0  0  0
    4.6561  -30.9300   -8.7444 H   0  0  0  0  0  0  0  0  0  0  0  0
    6.7056  -31.7039   -9.3564 H   0  0  0  0  0  0  0  0  0  0  0  0
    6.7305  -30.6337  -10.7616 H   0  0  0  0  0  0  0  0  0  0  0  0
    4.7125  -28.1846   -8.4839 H   0  0  0  0  0  0  0  0  0  0  0  0
    5.4060  -29.2618   -7.2657 H   0  0  0  0  0  0  0  0  0  0  0  0
    7.9817  -30.2338   -8.0379 H   0  0  0  0  0  0  0  0  0  0  0  0
    8.4806  -29.6051   -9.6129 H   0  0  0  0  0  0  0  0  0  0  0  0
    7.3184  -27.9134   -7.8740 H   0  0  0  0  0  0  0  0  0  0  0  0
    6.7960  -28.1493  -10.7908 H   0  0  0  0  0  0  0  0  0  0  0  0
  1  2  1  0  0  0  0
  1  3  2  0  0  0  0
  2  4  2  0  0  0  0
  2 17  1  0  0  0  0
  3  5  1  0  0  0  0
  3 16  1  0  0  0  0
  4 16  1  0  0  0  0
  4 18  1  0  0  0  0
  5 12  1  0  0  0  0
  5 13  2  0  0  0  0
  6  7  1  0  0  0  0
  6  8  1  0  0  0  0
  7  9  1  0  0  0  0
  8 10  1  0  0  0  0
  9 10  1  0  0  0  0
 10 11  1  0  0  0  0
 11 17  1  0  0  0  0
 14 17  2  0  0  0  0
 15 17  2  0  0  0  0
  1 19  1  0  0  0  0
  6 20  1  0  0  0  0
  6 21  1  0  0  0  0
  7 22  1  0  0  0  0
  7 23  1  0  0  0  0
  8 24  1  0  0  0  0
  8 25  1  0  0  0  0
  9 26  1  0  0  0  0
  9 27  1  0  0  0  0
 10 28  1  0  0  0  0
 11 29  1  0  0  0  0
M  CHG  1  12  -1
M  END
> <Hybrid2>
-4.303236961364746

> <Hybrid2>
-3.094222

$$$$
C37517980
  -OEChem-02152218503D

 36 38  0     1  0  0  0  0  0999 V2000
    8.7138  -25.8037   -9.6035 C   0  0  0  0  0  0  0  0  0  0  0  0
    8.4513  -27.2092   -9.6636 C   0  0  0  0  0  0  0  0  0  0  0  0
    7.2516  -27.8396   -9.2159 C   0  0  0  0  0  0  0  0  0  0  0  0
    7.2954  -29.2056   -9.4177 C   0  0  0  0  0  0  0  0  0  0  0  0
    9.3538  -28.1149  -10.1779 C   0  0  0  0  0  0  0  0  0  0  0  0
   11.1362  -26.8330  -11.4043 C   0  0  0  0  0  0  0  0  0  0  0  0
   14.6073  -28.3210  -11.1497 C   0  0  0  0  0  0  0  0  0  0  0  0
    6.0576  -27.1601   -8.6227 C   0  0  0  0  0  0  0  0  0  0  0  0
    6.2136  -30.1685   -9.0367 C   0  0  0  0  0  0  0  0  0  0  0  0
    5.1265  -28.1567   -7.9138 C   0  0  0  0  0  0  0  0  0  0  0  0
   13.5716  -26.0304  -11.4216 C   0  0  0  0  0  0  0  0  0  0  0  0
   12.5678  -27.0438  -11.8291 C   0  0  1  0  0  0  0  0  0  0  0  0
   13.5642  -27.3885  -10.7709 C   0  0  1  0  0  0  0  0  0  0  0  0
    4.8876  -29.4209   -8.7682 C   0  0  2  0  0  0  0  0  0  0  0  0
    3.8790  -30.3485   -8.0941 C   0  0  0  0  0  0  0  0  0  0  0  0
    8.9266  -24.6639   -9.5548 N   0  0  0  0  0  0  0  0  0  0  0  0
   10.6052  -27.9475  -10.7081 N   0  0  0  0  0  0  0  0  0  0  0  0
   15.7874  -27.8950  -11.0118 O   0  5  0  0  0  0  0  0  0  0  0  0
   10.5524  -25.7852  -11.6618 O   0  0  0  0  0  0  0  0  0  0  0  0
   14.1925  -29.4382  -11.5683 O   0  0  0  0  0  0  0  0  0  0  0  0
    8.7571  -29.7191  -10.1237 S   0  0  0  0  0  0  0  0  0  0  0  0
    6.3672  -26.3894   -7.9078 H   0  0  0  0  0  0  0  0  0  0  0  0
    5.5047  -26.6590   -9.4269 H   0  0  0  0  0  0  0  0  0  0  0  0
    6.0590  -30.9111   -9.8288 H   0  0  0  0  0  0  0  0  0  0  0  0
    6.5286  -30.7095   -8.1352 H   0  0  0  0  0  0  0  0  0  0  0  0
    5.5691  -28.4458   -6.9513 H   0  0  0  0  0  0  0  0  0  0  0  0
    4.1747  -27.6605   -7.6891 H   0  0  0  0  0  0  0  0  0  0  0  0
   14.3478  -25.8011  -12.1425 H   0  0  0  0  0  0  0  0  0  0  0  0
   13.2700  -25.1829  -10.8169 H   0  0  0  0  0  0  0  0  0  0  0  0
   12.6406  -27.4845  -12.8009 H   0  0  0  0  0  0  0  0  0  0  0  0
   13.2216  -27.4096   -9.7393 H   0  0  0  0  0  0  0  0  0  0  0  0
    4.4651  -29.1042   -9.7320 H   0  0  0  0  0  0  0  0  0  0  0  0
    4.2683  -30.6814   -7.1333 H   0  0  0  0  0  0  0  0  0  0  0  0
    3.6968  -31.2167   -8.7252 H   0  0  0  0  0  0  0  0  0  0  0  0
    2.9405  -29.8199   -7.9348 H   0  0  0  0  0  0  0  0  0  0  0  0
   11.2821  -28.7275  -10.6006 H   0  0  0  0  0  0  0  0  0  0  0  0
  1  2  1  0  0  0  0
  1 16  3  0  0  0  0
  2  3  1  0  0  0  0
  2  5  2  0  0  0  0
  3  4  2  0  0  0  0
  3  8  1  0  0  0  0
  4  9  1  0  0  0  0
  4 21  1  0  0  0  0
  5 17  1  0  0  0  0
  5 21  1  0  0  0  0
  6 12  1  0  0  0  0
  6 17  1  0  0  0  0
  6 19  2  0  0  0  0
  7 13  1  0  0  0  0
  7 18  1  0  0  0  0
  7 20  2  0  0  0  0
  8 10  1  0  0  0  0
  9 14  1  0  0  0  0
 10 14  1  0  0  0  0
 11 12  1  0  0  0  0
 11 13  1  0  0  0  0
 12 13  1  0  0  0  0
 14 15  1  0  0  0  0
  8 22  1  0  0  0  0
  8 23  1  0  0  0  0
  9 24  1  0  0  0  0
  9 25  1  0  0  0  0
 10 26  1  0  0  0  0
 10 27  1  0  0  0  0
 11 28  1  0  0  0  0
 11 29  1  0  0  0  0
 12 30  1  0  0  0  0
 13 31  1  0  0  0  0
 14 32  1  0  0  0  0
 15 33  1  0  0  0  0
 15 34  1  0  0  0  0
 15 35  1  0  0  0  0
 17 36  1  0  0  0  0
M  CHG  1  18  -1
M  END
> <Hybrid2>
-4.43531608581543

> <Hybrid2>
-4.435316

$$$$
C37517980
  -OEChem-02152218503D

 36 38  0     1  0  0  0  0  0999 V2000
    8.8975  -26.1710  -11.3573 C   0  0  0  0  0  0  0  0  0  0  0  0
    9.6965  -27.0710  -10.5830 C   0  0  0  0  0  0  0  0  0  0  0  0
   11.1033  -27.2572  -10.7350 C   0  0  0  0  0  0  0  0  0  0  0  0
   11.5883  -28.1857   -9.8342 C   0  0  0  0  0  0  0  0  0  0  0  0
    9.1720  -27.8634   -9.5849 C   0  0  0  0  0  0  0  0  0  0  0  0
    6.8519  -27.0406   -9.0705 C   0  0  0  0  0  0  0  0  0  0  0  0
    4.3768  -29.7599   -8.1725 C   0  0  0  0  0  0  0  0  0  0  0  0
   11.9947  -26.5488  -11.7060 C   0  0  0  0  0  0  0  0  0  0  0  0
   13.0140  -28.6346   -9.7421 C   0  0  0  0  0  0  0  0  0  0  0  0
   13.3508  -27.2566  -11.8581 C   0  0  0  0  0  0  0  0  0  0  0  0
    4.3320  -27.4768   -9.2583 C   0  0  0  0  0  0  0  0  0  0  0  0
    5.5827  -27.5896   -8.4687 C   0  0  1  0  0  0  0  0  0  0  0  0
    4.9953  -28.8176   -9.0839 C   0  0  1  0  0  0  0  0  0  0  0  0
   13.9446  -27.6517  -10.4884 C   0  0  2  0  0  0  0  0  0  0  0  0
   15.3368  -28.2571  -10.6552 C   0  0  0  0  0  0  0  0  0  0  0  0
    8.2496  -25.4411  -11.9853 N   0  0  0  0  0  0  0  0  0  0  0  0
    7.8941  -28.0003   -9.1123 N   0  0  0  0  0  0  0  0  0  0  0  0
    3.1638  -30.0193   -8.4064 O   0  5  0  0  0  0  0  0  0  0  0  0
    6.9093  -25.8805   -9.4652 O   0  0  0  0  0  0  0  0  0  0  0  0
    5.1382  -30.1958   -7.2640 O   0  0  0  0  0  0  0  0  0  0  0  0
   10.3706  -28.8270   -8.8318 S   0  0  0  0  0  0  0  0  0  0  0  0
   11.5160  -26.4781  -12.6892 H   0  0  0  0  0  0  0  0  0  0  0  0
   12.1600  -25.5255  -11.3469 H   0  0  0  0  0  0  0  0  0  0  0  0
   13.3296  -28.7109   -8.6946 H   0  0  0  0  0  0  0  0  0  0  0  0
   13.0943  -29.6362  -10.1839 H   0  0  0  0  0  0  0  0  0  0  0  0
   13.2234  -28.1572  -12.4735 H   0  0  0  0  0  0  0  0  0  0  0  0
   14.0404  -26.5975  -12.3991 H   0  0  0  0  0  0  0  0  0  0  0  0
    3.4259  -27.2662   -8.7020 H   0  0  0  0  0  0  0  0  0  0  0  0
    4.3541  -27.0310  -10.2461 H   0  0  0  0  0  0  0  0  0  0  0  0
    5.5423  -27.4462   -7.4096 H   0  0  0  0  0  0  0  0  0  0  0  0
    5.4759  -29.2194   -9.9724 H   0  0  0  0  0  0  0  0  0  0  0  0
   14.0425  -26.7385   -9.8848 H   0  0  0  0  0  0  0  0  0  0  0  0
   15.2749  -29.1665  -11.2506 H   0  0  0  0  0  0  0  0  0  0  0  0
   15.7539  -28.4979   -9.6787 H   0  0  0  0  0  0  0  0  0  0  0  0
   15.9908  -27.5459  -11.1571 H   0  0  0  0  0  0  0  0  0  0  0  0
    7.6201  -28.9240   -8.7251 H   0  0  0  0  0  0  0  0  0  0  0  0
  1  2  1  0  0  0  0
  1 16  3  0  0  0  0
  2  3  1  0  0  0  0
  2  5  2  0  0  0  0
  3  4  2  0  0  0  0
  3  8  1  0  0  0  0
  4  9  1  0  0  0  0
  4 21  1  0  0  0  0
  5 17  1  0  0  0  0
  5 21  1  0  0  0  0
  6 12  1  0  0  0  0
  6 17  1  0  0  0  0
  6 19  2  0  0  0  0
  7 13  1  0  0  0  0
  7 18  1  0  0  0  0
  7 20  2  0  0  0  0
  8 10  1  0  0  0  0
  9 14  1  0  0  0  0
 10 14  1  0  0  0  0
 11 12  1  0  0  0  0
 11 13  1  0  0  0  0
 12 13  1  0  0  0  0
 14 15  1  0  0  0  0
  8 22  1  0  0  0  0
  8 23  1  0  0  0  0
  9 24  1  0  0  0  0
  9 25  1  0  0  0  0
 10 26  1  0  0  0  0
 10 27  1  0  0  0  0
 11 28  1  0  0  0  0
 11 29  1  0  0  0  0
 12 30  1  0  0  0  0
 13 31  1  0  0  0  0
 14 32  1  0  0  0  0
 15 33  1  0  0  0  0
 15 34  1  0  0  0  0
 15 35  1  0  0  0  0
 17 36  1  0  0  0  0
M  CHG  1  18  -1
M  END
> <Hybrid2>
-4.43531608581543

> <Hybrid2>
-4.169821

$$$$
C37552369
  -OEChem-02152218503D

 28 29  0     0  0  0  0  0  0999 V2000
   12.0291  -27.0554  -11.0481 C   0  0  0  0  0  0  0  0  0  0  0  0
   13.2203  -27.1635  -11.1583 C   0  0  0  0  0  0  0  0  0  0  0  0
    4.9523  -29.6238   -8.2432 C   0  0  0  0  0  0  0  0  0  0  0  0
    4.4589  -29.1208   -9.4470 C   0  0  0  0  0  0  0  0  0  0  0  0
    6.1593  -27.5631   -7.8768 C   0  0  0  0  0  0  0  0  0  0  0  0
    9.7409  -27.9364  -10.5802 C   0  0  0  0  0  0  0  0  0  0  0  0
   10.6193  -26.9281  -10.9178 C   0  0  0  0  0  0  0  0  0  0  0  0
    5.6658  -27.0601   -9.0807 C   0  0  0  0  0  0  0  0  0  0  0  0
    5.8025  -28.8449   -7.4581 C   0  0  0  0  0  0  0  0  0  0  0  0
    4.8156  -27.8390   -9.8657 C   0  0  0  0  0  0  0  0  0  0  0  0
    8.2973  -26.2993  -10.7938 C   0  0  0  0  0  0  0  0  0  0  0  0
   14.6707  -27.2928  -11.2922 C   0  0  0  0  0  0  0  0  0  0  0  0
    8.4091  -27.5776  -10.5082 N   0  0  0  0  0  0  0  0  0  0  0  0
    7.1284  -25.6138  -10.8158 N   0  5  0  0  0  0  0  0  0  0  0  0
    4.8811  -24.7638   -9.8775 O   0  0  0  0  0  0  0  0  0  0  0  0
    6.8063  -24.8929   -8.3598 O   0  0  0  0  0  0  0  0  0  0  0  0
   15.0341  -28.6657  -11.2612 O   0  0  0  0  0  0  0  0  0  0  0  0
    9.7532  -25.4676  -11.1591 S   0  0  0  0  0  0  0  0  0  0  0  0
    6.1479  -25.4440   -9.5568 S   0  0  0  0  0  0  0  0  0  0  0  0
    6.4103  -29.4660   -5.9726 Cl  0  0  0  0  0  0  0  0  0  0  0  0
    4.1775  -27.2641  -11.3640 Cl  0  0  0  0  0  0  0  0  0  0  0  0
    4.6645  -30.6239   -7.9287 H   0  0  0  0  0  0  0  0  0  0  0  0
    3.7971  -29.7410  -10.0463 H   0  0  0  0  0  0  0  0  0  0  0  0
    6.8219  -26.9555   -7.2649 H   0  0  0  0  0  0  0  0  0  0  0  0
   10.0161  -28.9620  -10.3695 H   0  0  0  0  0  0  0  0  0  0  0  0
   15.0118  -26.8649  -12.2397 H   0  0  0  0  0  0  0  0  0  0  0  0
   15.1823  -26.7800  -10.4721 H   0  0  0  0  0  0  0  0  0  0  0  0
   16.0002  -28.7026  -11.3528 H   0  0  0  0  0  0  0  0  0  0  0  0
  1  2  3  0  0  0  0
  1  7  1  0  0  0  0
  2 12  1  0  0  0  0
  3  4  1  0  0  0  0
  3  9  2  0  0  0  0
  4 10  2  0  0  0  0
  5  8  2  0  0  0  0
  5  9  1  0  0  0  0
  6  7  2  0  0  0  0
  6 13  1  0  0  0  0
  7 18  1  0  0  0  0
  8 10  1  0  0  0  0
  8 19  1  0  0  0  0
  9 20  1  0  0  0  0
 10 21  1  0  0  0  0
 11 13  2  0  0  0  0
 11 14  1  0  0  0  0
 11 18  1  0  0  0  0
 12 17  1  0  0  0  0
 14 19  1  0  0  0  0
 15 19  2  0  0  0  0
 16 19  2  0  0  0  0
  3 22  1  0  0  0  0
  4 23  1  0  0  0  0
  5 24  1  0  0  0  0
  6 25  1  0  0  0  0
 12 26  1  0  0  0  0
 12 27  1  0  0  0  0
 17 28  1  0  0  0  0
M  CHG  1  14  -1
M  END
> <Hybrid2>
-3.4103221893310547

> <Hybrid2>
-3.410322

$$$$
C37552369
  -OEChem-02152218503D

 28 29  0     0  0  0  0  0  0999 V2000
   12.9301  -26.9815  -11.2714 C   0  0  0  0  0  0  0  0  0  0  0  0
   13.9779  -27.4587  -10.9293 C   0  0  0  0  0  0  0  0  0  0  0  0
    6.8356  -27.4032   -7.9916 C   0  0  0  0  0  0  0  0  0  0  0  0
    7.0528  -26.0313   -7.8638 C   0  0  0  0  0  0  0  0  0  0  0  0
    6.7557  -27.1666  -10.3947 C   0  0  0  0  0  0  0  0  0  0  0  0
   10.9547  -26.7840  -12.7846 C   0  0  0  0  0  0  0  0  0  0  0  0
   11.6901  -26.4170  -11.6771 C   0  0  0  0  0  0  0  0  0  0  0  0
    6.9728  -25.7947  -10.2669 C   0  0  0  0  0  0  0  0  0  0  0  0
    6.6871  -27.9709   -9.2571 C   0  0  0  0  0  0  0  0  0  0  0  0
    7.1214  -25.2270   -9.0014 C   0  0  0  0  0  0  0  0  0  0  0  0
    9.6289  -25.2165  -12.0130 C   0  0  0  0  0  0  0  0  0  0  0  0
   15.2533  -28.0388  -10.5105 C   0  0  0  0  0  0  0  0  0  0  0  0
    9.7723  -26.0970  -12.9786 N   0  0  0  0  0  0  0  0  0  0  0  0
    8.5772  -24.3705  -11.8913 N   0  5  0  0  0  0  0  0  0  0  0  0
    6.5894  -25.7456  -12.7916 O   0  0  0  0  0  0  0  0  0  0  0  0
    6.1134  -23.7224  -11.4852 O   0  0  0  0  0  0  0  0  0  0  0  0
   15.7590  -28.8773  -11.5396 O   0  0  0  0  0  0  0  0  0  0  0  0
   10.8786  -25.1603  -10.8383 S   0  0  0  0  0  0  0  0  0  0  0  0
    7.0492  -24.8335  -11.7301 S   0  0  0  0  0  0  0  0  0  0  0  0
    6.4199  -29.6637   -9.4140 Cl  0  0  0  0  0  0  0  0  0  0  0  0
    7.3916  -23.5348   -8.7878 Cl  0  0  0  0  0  0  0  0  0  0  0  0
    6.7861  -28.0178   -7.0963 H   0  0  0  0  0  0  0  0  0  0  0  0
    7.1668  -25.6054   -6.8700 H   0  0  0  0  0  0  0  0  0  0  0  0
    6.6401  -27.6088  -11.3816 H   0  0  0  0  0  0  0  0  0  0  0  0
   11.2309  -27.5555  -13.4920 H   0  0  0  0  0  0  0  0  0  0  0  0
   15.9886  -27.2537  -10.3099 H   0  0  0  0  0  0  0  0  0  0  0  0
   15.1264  -28.6394   -9.6047 H   0  0  0  0  0  0  0  0  0  0  0  0
   16.6016  -29.2383  -11.2190 H   0  0  0  0  0  0  0  0  0  0  0  0
  1  2  3  0  0  0  0
  1  7  1  0  0  0  0
  2 12  1  0  0  0  0
  3  4  1  0  0  0  0
  3  9  2  0  0  0  0
  4 10  2  0  0  0  0
  5  8  2  0  0  0  0
  5  9  1  0  0  0  0
  6  7  2  0  0  0  0
  6 13  1  0  0  0  0
  7 18  1  0  0  0  0
  8 10  1  0  0  0  0
  8 19  1  0  0  0  0
  9 20  1  0  0  0  0
 10 21  1  0  0  0  0
 11 13  2  0  0  0  0
 11 14  1  0  0  0  0
 11 18  1  0  0  0  0
 12 17  1  0  0  0  0
 14 19  1  0  0  0  0
 15 19  2  0  0  0  0
 16 19  2  0  0  0  0
  3 22  1  0  0  0  0
  4 23  1  0  0  0  0
  5 24  1  0  0  0  0
  6 25  1  0  0  0  0
 12 26  1  0  0  0  0
 12 27  1  0  0  0  0
 17 28  1  0  0  0  0
M  CHG  1  14  -1
M  END
> <Hybrid2>
-3.4103221893310547

> <Hybrid2>
-3.327477

$$$$
C37561617
  -OEChem-02152218503D

 39 41  0     0  0  0  0  0  0999 V2000
    7.5961  -28.5471   -8.9663 C   0  0  0  0  0  0  0  0  0  0  0  0
    5.5018  -28.2801   -8.1837 C   0  0  0  0  0  0  0  0  0  0  0  0
    6.4574  -29.2295   -8.4715 C   0  0  0  0  0  0  0  0  0  0  0  0
    7.3018  -27.2015   -8.9656 C   0  0  0  0  0  0  0  0  0  0  0  0
    8.1805  -26.0834   -9.3958 C   0  0  0  0  0  0  0  0  0  0  0  0
   13.4731  -26.0290  -12.2960 C   0  0  0  0  0  0  0  0  0  0  0  0
   11.1741  -26.9130  -12.6117 C   0  0  0  0  0  0  0  0  0  0  0  0
   12.1686  -26.6558  -10.2774 C   0  0  0  0  0  0  0  0  0  0  0  0
    3.9711  -25.5666   -8.9523 C   0  0  0  0  0  0  0  0  0  0  0  0
    5.1646  -24.8299   -9.4745 C   0  0  0  0  0  0  0  0  0  0  0  0
   10.3375  -25.6526  -12.3792 C   0  0  0  0  0  0  0  0  0  0  0  0
   11.3210  -25.3983  -10.0698 C   0  0  0  0  0  0  0  0  0  0  0  0
   12.4266  -26.9840  -11.7443 C   0  0  0  0  0  0  0  0  0  0  0  0
    5.3253  -25.7932   -8.3219 C   0  0  0  0  0  0  0  0  0  0  0  0
   10.0351  -25.4099  -10.8990 C   0  0  0  0  0  0  0  0  0  0  0  0
    6.0263  -27.0509   -8.4876 N   0  0  0  0  0  0  0  0  0  0  0  0
    9.0953  -26.3842  -10.3914 N   0  0  0  0  0  0  0  0  0  0  0  0
   14.2895  -25.5751  -11.4472 O   0  5  0  0  0  0  0  0  0  0  0  0
    8.0693  -24.9888   -8.8499 O   0  0  0  0  0  0  0  0  0  0  0  0
   13.3901  -25.8121  -13.5375 O   0  0  0  0  0  0  0  0  0  0  0  0
    6.3243  -31.0827   -8.2698 Br  0  0  0  0  0  0  0  0  0  0  0  0
    8.5306  -28.9864   -9.2895 H   0  0  0  0  0  0  0  0  0  0  0  0
    4.4984  -28.3756   -7.7897 H   0  0  0  0  0  0  0  0  0  0  0  0
   10.5521  -27.7924  -12.4012 H   0  0  0  0  0  0  0  0  0  0  0  0
   11.4415  -26.9711  -13.6741 H   0  0  0  0  0  0  0  0  0  0  0  0
   13.1176  -26.5373   -9.7400 H   0  0  0  0  0  0  0  0  0  0  0  0
   11.6548  -27.5072   -9.8131 H   0  0  0  0  0  0  0  0  0  0  0  0
    3.2400  -25.0046   -8.3839 H   0  0  0  0  0  0  0  0  0  0  0  0
    3.5512  -26.3499   -9.5714 H   0  0  0  0  0  0  0  0  0  0  0  0
    5.5493  -25.1180  -10.4453 H   0  0  0  0  0  0  0  0  0  0  0  0
    5.2396  -23.7710   -9.2589 H   0  0  0  0  0  0  0  0  0  0  0  0
   10.8754  -24.7836  -12.7784 H   0  0  0  0  0  0  0  0  0  0  0  0
    9.4049  -25.7193  -12.9531 H   0  0  0  0  0  0  0  0  0  0  0  0
   11.0865  -25.2847   -9.0042 H   0  0  0  0  0  0  0  0  0  0  0  0
   11.9119  -24.5154  -10.3440 H   0  0  0  0  0  0  0  0  0  0  0  0
   12.8611  -27.9881  -11.8188 H   0  0  0  0  0  0  0  0  0  0  0  0
    5.4864  -25.3597   -7.3412 H   0  0  0  0  0  0  0  0  0  0  0  0
    9.5350  -24.4367  -10.7931 H   0  0  0  0  0  0  0  0  0  0  0  0
    9.1720  -27.3292  -10.7519 H   0  0  0  0  0  0  0  0  0  0  0  0
  1  3  1  0  0  0  0
  1  4  2  0  0  0  0
  2  3  2  0  0  0  0
  2 16  1  0  0  0  0
  3 21  1  0  0  0  0
  4  5  1  0  0  0  0
  4 16  1  0  0  0  0
  5 17  1  0  0  0  0
  5 19  2  0  0  0  0
  6 13  1  0  0  0  0
  6 18  1  0  0  0  0
  6 20  2  0  0  0  0
  7 11  1  0  0  0  0
  7 13  1  0  0  0  0
  8 12  1  0  0  0  0
  8 13  1  0  0  0  0
  9 10  1  0  0  0  0
  9 14  1  0  0  0  0
 10 14  1  0  0  0  0
 11 15  1  0  0  0  0
 12 15  1  0  0  0  0
 14 16  1  0  0  0  0
 15 17  1  0  0  0  0
  1 22  1  0  0  0  0
  2 23  1  0  0  0  0
  7 24  1  0  0  0  0
  7 25  1  0  0  0  0
  8 26  1  0  0  0  0
  8 27  1  0  0  0  0
  9 28  1  0  0  0  0
  9 29  1  0  0  0  0
 10 30  1  0  0  0  0
 10 31  1  0  0  0  0
 11 32  1  0  0  0  0
 11 33  1  0  0  0  0
 12 34  1  0  0  0  0
 12 35  1  0  0  0  0
 13 36  1  0  0  0  0
 14 37  1  0  0  0  0
 15 38  1  0  0  0  0
 17 39  1  0  0  0  0
M  CHG  1  18  -1
M  END
> <Hybrid2>
-3.2517735958099365

> <Hybrid2>
-3.251774

$$$$
C37561617
  -OEChem-02152218503D

 39 41  0     0  0  0  0  0  0999 V2000
   11.4597  -26.4680  -12.6712 C   0  0  0  0  0  0  0  0  0  0  0  0
   13.7016  -26.6606  -12.7526 C   0  0  0  0  0  0  0  0  0  0  0  0
   12.5924  -26.3720  -13.5166 C   0  0  0  0  0  0  0  0  0  0  0  0
   11.9112  -26.8122  -11.4161 C   0  0  0  0  0  0  0  0  0  0  0  0
   11.0993  -27.0289  -10.1910 C   0  0  0  0  0  0  0  0  0  0  0  0
    5.1396  -27.4930   -9.3587 C   0  0  0  0  0  0  0  0  0  0  0  0
    6.9309  -28.5625  -10.7054 C   0  0  0  0  0  0  0  0  0  0  0  0
    7.0826  -26.1048  -10.0419 C   0  0  0  0  0  0  0  0  0  0  0  0
   15.1173  -28.4273  -10.4786 C   0  0  0  0  0  0  0  0  0  0  0  0
   13.9316  -28.5348   -9.5717 C   0  0  0  0  0  0  0  0  0  0  0  0
    7.9538  -28.9047   -9.6195 C   0  0  0  0  0  0  0  0  0  0  0  0
    8.1042  -26.4732   -8.9633 C   0  0  0  0  0  0  0  0  0  0  0  0
    6.1762  -27.2626  -10.4467 C   0  0  0  0  0  0  0  0  0  0  0  0
   14.1483  -27.2729  -10.3735 C   0  0  0  0  0  0  0  0  0  0  0  0
    8.8935  -27.7385   -9.3057 C   0  0  0  0  0  0  0  0  0  0  0  0
   13.2755  -26.9263  -11.4775 N   0  0  0  0  0  0  0  0  0  0  0  0
    9.8133  -27.5013  -10.3955 N   0  0  0  0  0  0  0  0  0  0  0  0
    4.8396  -26.4748   -8.6757 O   0  5  0  0  0  0  0  0  0  0  0  0
   11.5864  -26.7670   -9.0943 O   0  0  0  0  0  0  0  0  0  0  0  0
    4.7107  -28.6782   -9.2781 O   0  0  0  0  0  0  0  0  0  0  0  0
   12.5379  -25.9346  -15.3328 Br  0  0  0  0  0  0  0  0  0  0  0  0
   10.4256  -26.3052  -12.9448 H   0  0  0  0  0  0  0  0  0  0  0  0
   14.7526  -26.6984  -13.0080 H   0  0  0  0  0  0  0  0  0  0  0  0
    7.4529  -28.4790  -11.6671 H   0  0  0  0  0  0  0  0  0  0  0  0
    6.2278  -29.3985  -10.8073 H   0  0  0  0  0  0  0  0  0  0  0  0
    6.4835  -25.2563   -9.6888 H   0  0  0  0  0  0  0  0  0  0  0  0
    7.6210  -25.7539  -10.9315 H   0  0  0  0  0  0  0  0  0  0  0  0
   16.0925  -28.3078  -10.0223 H   0  0  0  0  0  0  0  0  0  0  0  0
   15.1161  -29.0228  -11.3832 H   0  0  0  0  0  0  0  0  0  0  0  0
   13.1310  -29.2023   -9.8664 H   0  0  0  0  0  0  0  0  0  0  0  0
   14.1057  -28.4879   -8.5037 H   0  0  0  0  0  0  0  0  0  0  0  0
    7.4243  -29.1902   -8.7019 H   0  0  0  0  0  0  0  0  0  0  0  0
    8.5299  -29.7879   -9.9221 H   0  0  0  0  0  0  0  0  0  0  0  0
    8.7871  -25.6302   -8.8004 H   0  0  0  0  0  0  0  0  0  0  0  0
    7.5831  -26.6272   -8.0101 H   0  0  0  0  0  0  0  0  0  0  0  0
    5.6159  -26.9849  -11.3474 H   0  0  0  0  0  0  0  0  0  0  0  0
   14.4867  -26.3990   -9.8279 H   0  0  0  0  0  0  0  0  0  0  0  0
    9.5215  -28.0095   -8.4451 H   0  0  0  0  0  0  0  0  0  0  0  0
    9.4575  -27.6356  -11.3358 H   0  0  0  0  0  0  0  0  0  0  0  0
  1  3  1  0  0  0  0
  1  4  2  0  0  0  0
  2  3  2  0  0  0  0
  2 16  1  0  0  0  0
  3 21  1  0  0  0  0
  4  5  1  0  0  0  0
  4 16  1  0  0  0  0
  5 17  1  0  0  0  0
  5 19  2  0  0  0  0
  6 13  1  0  0  0  0
  6 18  1  0  0  0  0
  6 20  2  0  0  0  0
  7 11  1  0  0  0  0
  7 13  1  0  0  0  0
  8 12  1  0  0  0  0
  8 13  1  0  0  0  0
  9 10  1  0  0  0  0
  9 14  1  0  0  0  0
 10 14  1  0  0  0  0
 11 15  1  0  0  0  0
 12 15  1  0  0  0  0
 14 16  1  0  0  0  0
 15 17  1  0  0  0  0
  1 22  1  0  0  0  0
  2 23  1  0  0  0  0
  7 24  1  0  0  0  0
  7 25  1  0  0  0  0
  8 26  1  0  0  0  0
  8 27  1  0  0  0  0
  9 28  1  0  0  0  0
  9 29  1  0  0  0  0
 10 30  1  0  0  0  0
 10 31  1  0  0  0  0
 11 32  1  0  0  0  0
 11 33  1  0  0  0  0
 12 34  1  0  0  0  0
 12 35  1  0  0  0  0
 13 36  1  0  0  0  0
 14 37  1  0  0  0  0
 15 38  1  0  0  0  0
 17 39  1  0  0  0  0
M  CHG  1  18  -1
M  END
> <Hybrid2>
-3.2517735958099365

> <Hybrid2>
-2.956871

$$$$
C37561620
  -OEChem-02152218503D

 39 41  0     0  0  0  0  0  0999 V2000
    9.9950  -27.3579  -13.5025 C   0  0  0  0  0  0  0  0  0  0  0  0
   12.0928  -26.8693  -14.1586 C   0  0  0  0  0  0  0  0  0  0  0  0
   10.8457  -27.2196  -14.6269 C   0  0  0  0  0  0  0  0  0  0  0  0
   10.7482  -27.0877  -12.3813 C   0  0  0  0  0  0  0  0  0  0  0  0
   10.2988  -27.1030  -10.9653 C   0  0  0  0  0  0  0  0  0  0  0  0
    5.1981  -29.0553   -8.3969 C   0  0  0  0  0  0  0  0  0  0  0  0
    7.0076  -29.9208   -9.8607 C   0  0  0  0  0  0  0  0  0  0  0  0
    6.3202  -27.4663   -9.9412 C   0  0  0  0  0  0  0  0  0  0  0  0
   14.4369  -27.2024  -11.9916 C   0  0  0  0  0  0  0  0  0  0  0  0
   13.5525  -27.3482  -10.7931 C   0  0  0  0  0  0  0  0  0  0  0  0
    8.2506  -29.5321   -9.0566 C   0  0  0  0  0  0  0  0  0  0  0  0
    7.5708  -27.1038   -9.1365 C   0  0  0  0  0  0  0  0  0  0  0  0
    5.8696  -28.9112   -9.7533 C   0  0  0  0  0  0  0  0  0  0  0  0
   13.1319  -26.4439  -11.9278 C   0  0  0  0  0  0  0  0  0  0  0  0
    8.7130  -28.1013   -9.3401 C   0  0  0  0  0  0  0  0  0  0  0  0
   12.0216  -26.7917  -12.7922 N   0  0  0  0  0  0  0  0  0  0  0  0
    9.2755  -27.9876  -10.6670 N   0  0  0  0  0  0  0  0  0  0  0  0
    4.6520  -28.0080   -7.9517 O   0  5  0  0  0  0  0  0  0  0  0  0
   10.8262  -26.3400  -10.1602 O   0  0  0  0  0  0  0  0  0  0  0  0
    5.2735  -30.2090   -7.8885 O   0  0  0  0  0  0  0  0  0  0  0  0
   10.3820  -27.4490  -16.2425 Cl  0  0  0  0  0  0  0  0  0  0  0  0
    8.9470  -27.6270  -13.5086 H   0  0  0  0  0  0  0  0  0  0  0  0
   13.0198  -26.6698  -14.6802 H   0  0  0  0  0  0  0  0  0  0  0  0
    7.2886  -30.0209  -10.9168 H   0  0  0  0  0  0  0  0  0  0  0  0
    6.6701  -30.9128   -9.5357 H   0  0  0  0  0  0  0  0  0  0  0  0
    5.5115  -26.7759   -9.6712 H   0  0  0  0  0  0  0  0  0  0  0  0
    6.5262  -27.2994  -11.0062 H   0  0  0  0  0  0  0  0  0  0  0  0
   15.3533  -26.6362  -11.8768 H   0  0  0  0  0  0  0  0  0  0  0  0
   14.5129  -28.0450  -12.6680 H   0  0  0  0  0  0  0  0  0  0  0  0
   13.0318  -28.2891  -10.6629 H   0  0  0  0  0  0  0  0  0  0  0  0
   13.8713  -26.8809   -9.8694 H   0  0  0  0  0  0  0  0  0  0  0  0
    8.0325  -29.6287   -7.9856 H   0  0  0  0  0  0  0  0  0  0  0  0
    9.0601  -30.2428   -9.2644 H   0  0  0  0  0  0  0  0  0  0  0  0
    7.8976  -26.0906   -9.4015 H   0  0  0  0  0  0  0  0  0  0  0  0
    7.3161  -27.0689   -8.0699 H   0  0  0  0  0  0  0  0  0  0  0  0
    5.1028  -29.1504  -10.4998 H   0  0  0  0  0  0  0  0  0  0  0  0
   13.1956  -25.3759  -11.7512 H   0  0  0  0  0  0  0  0  0  0  0  0
    9.5320  -27.8492   -8.6514 H   0  0  0  0  0  0  0  0  0  0  0  0
    8.8451  -28.5428  -11.3986 H   0  0  0  0  0  0  0  0  0  0  0  0
  1  3  1  0  0  0  0
  1  4  2  0  0  0  0
  2  3  2  0  0  0  0
  2 16  1  0  0  0  0
  3 21  1  0  0  0  0
  4  5  1  0  0  0  0
  4 16  1  0  0  0  0
  5 17  1  0  0  0  0
  5 19  2  0  0  0  0
  6 13  1  0  0  0  0
  6 18  1  0  0  0  0
  6 20  2  0  0  0  0
  7 11  1  0  0  0  0
  7 13  1  0  0  0  0
  8 12  1  0  0  0  0
  8 13  1  0  0  0  0
  9 10  1  0  0  0  0
  9 14  1  0  0  0  0
 10 14  1  0  0  0  0
 11 15  1  0  0  0  0
 12 15  1  0  0  0  0
 14 16  1  0  0  0  0
 15 17  1  0  0  0  0
  1 22  1  0  0  0  0
  2 23  1  0  0  0  0
  7 24  1  0  0  0  0
  7 25  1  0  0  0  0
  8 26  1  0  0  0  0
  8 27  1  0  0  0  0
  9 28  1  0  0  0  0
  9 29  1  0  0  0  0
 10 30  1  0  0  0  0
 10 31  1  0  0  0  0
 11 32  1  0  0  0  0
 11 33  1  0  0  0  0
 12 34  1  0  0  0  0
 12 35  1  0  0  0  0
 13 36  1  0  0  0  0
 14 37  1  0  0  0  0
 15 38  1  0  0  0  0
 17 39  1  0  0  0  0
M  CHG  1  18  -1
M  END
> <Hybrid2>
-3.2313222885131836

> <Hybrid2>
-3.231322

$$$$
C37561620
  -OEChem-02152218503D

 39 41  0     0  0  0  0  0  0999 V2000
    7.9126  -28.7873   -9.1824 C   0  0  0  0  0  0  0  0  0  0  0  0
    5.7463  -28.1731   -9.1834 C   0  0  0  0  0  0  0  0  0  0  0  0
    6.5996  -29.2007   -8.8472 C   0  0  0  0  0  0  0  0  0  0  0  0
    7.8216  -27.5194   -9.7131 C   0  0  0  0  0  0  0  0  0  0  0  0
    8.9312  -26.6663  -10.2113 C   0  0  0  0  0  0  0  0  0  0  0  0
   15.2993  -25.5828  -12.0432 C   0  0  0  0  0  0  0  0  0  0  0  0
   12.9292  -26.0310  -12.4927 C   0  0  0  0  0  0  0  0  0  0  0  0
   13.8612  -26.2060  -10.1519 C   0  0  0  0  0  0  0  0  0  0  0  0
    5.9389  -24.6768   -9.2833 C   0  0  0  0  0  0  0  0  0  0  0  0
    4.6568  -25.3538   -9.6542 C   0  0  0  0  0  0  0  0  0  0  0  0
   11.6514  -26.7337  -12.0388 C   0  0  0  0  0  0  0  0  0  0  0  0
   12.5844  -26.9075   -9.6933 C   0  0  0  0  0  0  0  0  0  0  0  0
   14.1200  -26.4449  -11.6352 C   0  0  0  0  0  0  0  0  0  0  0  0
    5.9667  -25.8932  -10.1789 C   0  0  0  0  0  0  0  0  0  0  0  0
   11.3807  -26.5035  -10.5490 C   0  0  0  0  0  0  0  0  0  0  0  0
    6.5002  -27.1561   -9.7086 N   0  0  0  0  0  0  0  0  0  0  0  0
   10.1994  -27.2174  -10.1286 N   0  0  0  0  0  0  0  0  0  0  0  0
   16.1418  -25.3553  -11.1313 O   0  5  0  0  0  0  0  0  0  0  0  0
    8.6789  -25.5428  -10.6386 O   0  0  0  0  0  0  0  0  0  0  0  0
   15.2858  -25.2025  -13.2475 O   0  0  0  0  0  0  0  0  0  0  0  0
    6.1872  -30.6947   -8.1575 Cl  0  0  0  0  0  0  0  0  0  0  0  0
    8.8259  -29.3528   -9.0529 H   0  0  0  0  0  0  0  0  0  0  0  0
    4.6719  -28.0806   -9.0934 H   0  0  0  0  0  0  0  0  0  0  0  0
   13.1322  -26.2978  -13.5272 H   0  0  0  0  0  0  0  0  0  0  0  0
   12.7817  -24.9555  -12.4496 H   0  0  0  0  0  0  0  0  0  0  0  0
   13.7805  -25.1425   -9.9438 H   0  0  0  0  0  0  0  0  0  0  0  0
   14.7027  -26.5932   -9.5821 H   0  0  0  0  0  0  0  0  0  0  0  0
    6.1511  -23.7153   -9.7352 H   0  0  0  0  0  0  0  0  0  0  0  0
    6.2860  -24.7781   -8.2624 H   0  0  0  0  0  0  0  0  0  0  0  0
    4.1406  -25.9123   -8.8828 H   0  0  0  0  0  0  0  0  0  0  0  0
    4.0033  -24.8501  -10.3560 H   0  0  0  0  0  0  0  0  0  0  0  0
   10.8039  -26.3545  -12.6150 H   0  0  0  0  0  0  0  0  0  0  0  0
   11.7205  -27.8026  -12.2525 H   0  0  0  0  0  0  0  0  0  0  0  0
   12.7259  -27.9903   -9.7223 H   0  0  0  0  0  0  0  0  0  0  0  0
   12.3812  -26.6476   -8.6514 H   0  0  0  0  0  0  0  0  0  0  0  0
   14.3829  -27.4620  -11.8165 H   0  0  0  0  0  0  0  0  0  0  0  0
    6.1805  -25.7227  -11.2282 H   0  0  0  0  0  0  0  0  0  0  0  0
   11.1614  -25.4444  -10.3826 H   0  0  0  0  0  0  0  0  0  0  0  0
   10.3383  -28.1285   -9.7052 H   0  0  0  0  0  0  0  0  0  0  0  0
  1  3  1  0  0  0  0
  1  4  2  0  0  0  0
  2  3  2  0  0  0  0
  2 16  1  0  0  0  0
  3 21  1  0  0  0  0
  4  5  1  0  0  0  0
  4 16  1  0  0  0  0
  5 17  1  0  0  0  0
  5 19  2  0  0  0  0
  6 13  1  0  0  0  0
  6 18  1  0  0  0  0
  6 20  2  0  0  0  0
  7 11  1  0  0  0  0
  7 13  1  0  0  0  0
  8 12  1  0  0  0  0
  8 13  1  0  0  0  0
  9 10  1  0  0  0  0
  9 14  1  0  0  0  0
 10 14  1  0  0  0  0
 11 15  1  0  0  0  0
 12 15  1  0  0  0  0
 14 16  1  0  0  0  0
 15 17  1  0  0  0  0
  1 22  1  0  0  0  0
  2 23  1  0  0  0  0
  7 24  1  0  0  0  0
  7 25  1  0  0  0  0
  8 26  1  0  0  0  0
  8 27  1  0  0  0  0
  9 28  1  0  0  0  0
  9 29  1  0  0  0  0
 10 30  1  0  0  0  0
 10 31  1  0  0  0  0
 11 32  1  0  0  0  0
 11 33  1  0  0  0  0
 12 34  1  0  0  0  0
 12 35  1  0  0  0  0
 13 36  1  0  0  0  0
 14 37  1  0  0  0  0
 15 38  1  0  0  0  0
 17 39  1  0  0  0  0
M  CHG  1  18  -1
M  END
> <Hybrid2>
-3.2313222885131836

> <Hybrid2>
-2.622898

$$$$
C37675381
  -OEChem-02152218503D

 31 33  0     0  0  0  0  0  0999 V2000
    8.2459  -28.0571   -9.4339 C   0  0  0  0  0  0  0  0  0  0  0  0
   12.7821  -26.1377  -11.7650 C   0  0  0  0  0  0  0  0  0  0  0  0
    6.8881  -28.1408   -9.0656 C   0  0  0  0  0  0  0  0  0  0  0  0
    8.4563  -26.9733  -10.2721 C   0  0  0  0  0  0  0  0  0  0  0  0
    6.1366  -27.1432   -9.6229 C   0  0  0  0  0  0  0  0  0  0  0  0
   14.1778  -26.4049  -11.8607 C   0  0  0  0  0  0  0  0  0  0  0  0
   12.1698  -27.0929  -10.9829 C   0  0  0  0  0  0  0  0  0  0  0  0
   12.0657  -24.9651  -12.4310 C   0  0  0  0  0  0  0  0  0  0  0  0
    9.6737  -26.5298  -10.8713 C   0  0  0  0  0  0  0  0  0  0  0  0
    6.0562  -29.0331   -8.2229 C   0  0  0  0  0  0  0  0  0  0  0  0
    4.7018  -27.1940   -9.2596 C   0  0  0  0  0  0  0  0  0  0  0  0
    4.6074  -28.6221   -8.6373 C   0  0  0  0  0  0  0  0  0  0  0  0
   15.1531  -25.5910  -12.6186 C   0  0  0  0  0  0  0  0  0  0  0  0
   14.6391  -27.4734  -11.2150 N   0  0  0  0  0  0  0  0  0  0  0  0
   10.8271  -27.2941  -10.5748 N   0  0  0  0  0  0  0  0  0  0  0  0
   11.9845  -23.8987  -11.7605 O   0  5  0  0  0  0  0  0  0  0  0  0
   11.6167  -25.1645  -13.5937 O   0  0  0  0  0  0  0  0  0  0  0  0
    9.7415  -25.5064  -11.5913 O   0  0  0  0  0  0  0  0  0  0  0  0
    7.0030  -26.0873  -10.5873 S   0  0  0  0  0  0  0  0  0  0  0  0
   13.3578  -28.2066  -10.4518 S   0  0  0  0  0  0  0  0  0  0  0  0
    9.0266  -28.7356   -9.1153 H   0  0  0  0  0  0  0  0  0  0  0  0
    6.2381  -30.0934   -8.4186 H   0  0  0  0  0  0  0  0  0  0  0  0
    6.2241  -28.8244   -7.1613 H   0  0  0  0  0  0  0  0  0  0  0  0
    4.4623  -26.4324   -8.5104 H   0  0  0  0  0  0  0  0  0  0  0  0
    4.0322  -27.0909  -10.1177 H   0  0  0  0  0  0  0  0  0  0  0  0
    4.2448  -29.3210   -9.4030 H   0  0  0  0  0  0  0  0  0  0  0  0
    3.9071  -28.6642   -7.7969 H   0  0  0  0  0  0  0  0  0  0  0  0
   15.5805  -24.7977  -11.9858 H   0  0  0  0  0  0  0  0  0  0  0  0
   15.9861  -26.2015  -13.0037 H   0  0  0  0  0  0  0  0  0  0  0  0
   14.6922  -25.1107  -13.4973 H   0  0  0  0  0  0  0  0  0  0  0  0
   10.6700  -28.1060   -9.9829 H   0  0  0  0  0  0  0  0  0  0  0  0
  1  3  1  0  0  0  0
  1  4  2  0  0  0  0
  2  6  1  0  0  0  0
  2  7  2  0  0  0  0
  2  8  1  0  0  0  0
  3  5  2  0  0  0  0
  3 10  1  0  0  0  0
  4  9  1  0  0  0  0
  4 19  1  0  0  0  0
  5 11  1  0  0  0  0
  5 19  1  0  0  0  0
  6 13  1  0  0  0  0
  6 14  2  0  0  0  0
  7 15  1  0  0  0  0
  7 20  1  0  0  0  0
  8 16  1  0  0  0  0
  8 17  2  0  0  0  0
  9 15  1  0  0  0  0
  9 18  2  0  0  0  0
 10 12  1  0  0  0  0
 11 12  1  0  0  0  0
 14 20  1  0  0  0  0
  1 21  1  0  0  0  0
 10 22  1  0  0  0  0
 10 23  1  0  0  0  0
 11 24  1  0  0  0  0
 11 25  1  0  0  0  0
 12 26  1  0  0  0  0
 12 27  1  0  0  0  0
 13 28  1  0  0  0  0
 13 29  1  0  0  0  0
 13 30  1  0  0  0  0
 15 31  1  0  0  0  0
M  CHG  1  16  -1
M  END
> <Hybrid2>
-3.937560558319092

> <Hybrid2>
-3.937561

$$$$
C37675381
  -OEChem-02152218503D

 31 33  0     0  0  0  0  0  0999 V2000
   12.3833  -27.5392  -10.3825 C   0  0  0  0  0  0  0  0  0  0  0  0
    6.9016  -27.3495   -9.5713 C   0  0  0  0  0  0  0  0  0  0  0  0
   13.5334  -27.5372  -11.1970 C   0  0  0  0  0  0  0  0  0  0  0  0
   11.2911  -27.0507  -11.0823 C   0  0  0  0  0  0  0  0  0  0  0  0
   13.2791  -27.0598  -12.4532 C   0  0  0  0  0  0  0  0  0  0  0  0
    5.7619  -28.0465   -9.0778 C   0  0  0  0  0  0  0  0  0  0  0  0
    7.9505  -28.2249   -9.7513 C   0  0  0  0  0  0  0  0  0  0  0  0
    6.9568  -25.8509   -9.8594 C   0  0  0  0  0  0  0  0  0  0  0  0
    9.9453  -26.8841  -10.6362 C   0  0  0  0  0  0  0  0  0  0  0  0
   14.9571  -27.9233  -11.0472 C   0  0  0  0  0  0  0  0  0  0  0  0
   14.4628  -27.0420  -13.3429 C   0  0  0  0  0  0  0  0  0  0  0  0
   15.6093  -27.2759  -12.3103 C   0  0  0  0  0  0  0  0  0  0  0  0
    4.4532  -27.4312   -8.7667 C   0  0  0  0  0  0  0  0  0  0  0  0
    5.8868  -29.3570   -8.8820 N   0  0  0  0  0  0  0  0  0  0  0  0
    9.2816  -28.0590  -10.2102 N   0  0  0  0  0  0  0  0  0  0  0  0
    6.6358  -25.4879  -11.0250 O   0  5  0  0  0  0  0  0  0  0  0  0
    7.3188  -25.1058   -8.9071 O   0  0  0  0  0  0  0  0  0  0  0  0
    9.3595  -25.7763  -10.6474 O   0  0  0  0  0  0  0  0  0  0  0  0
   11.6901  -26.6052  -12.7068 S   0  0  0  0  0  0  0  0  0  0  0  0
    7.4341  -29.7949   -9.3018 S   0  0  0  0  0  0  0  0  0  0  0  0
   12.3424  -27.8724   -9.3535 H   0  0  0  0  0  0  0  0  0  0  0  0
   15.4072  -27.5384  -10.1280 H   0  0  0  0  0  0  0  0  0  0  0  0
   15.0644  -29.0125  -11.0772 H   0  0  0  0  0  0  0  0  0  0  0  0
   14.4213  -27.8655  -14.0633 H   0  0  0  0  0  0  0  0  0  0  0  0
   14.5941  -26.0947  -13.8727 H   0  0  0  0  0  0  0  0  0  0  0  0
   16.0397  -26.3051  -12.0301 H   0  0  0  0  0  0  0  0  0  0  0  0
   16.4194  -27.8880  -12.7195 H   0  0  0  0  0  0  0  0  0  0  0  0
    3.7934  -27.4412   -9.6482 H   0  0  0  0  0  0  0  0  0  0  0  0
    3.9345  -27.9599   -7.9504 H   0  0  0  0  0  0  0  0  0  0  0  0
    4.5597  -26.3849   -8.4362 H   0  0  0  0  0  0  0  0  0  0  0  0
    9.8408  -28.9080  -10.2372 H   0  0  0  0  0  0  0  0  0  0  0  0
  1  3  1  0  0  0  0
  1  4  2  0  0  0  0
  2  6  1  0  0  0  0
  2  7  2  0  0  0  0
  2  8  1  0  0  0  0
  3  5  2  0  0  0  0
  3 10  1  0  0  0  0
  4  9  1  0  0  0  0
  4 19  1  0  0  0  0
  5 11  1  0  0  0  0
  5 19  1  0  0  0  0
  6 13  1  0  0  0  0
  6 14  2  0  0  0  0
  7 15  1  0  0  0  0
  7 20  1  0  0  0  0
  8 16  1  0  0  0  0
  8 17  2  0  0  0  0
  9 15  1  0  0  0  0
  9 18  2  0  0  0  0
 10 12  1  0  0  0  0
 11 12  1  0  0  0  0
 14 20  1  0  0  0  0
  1 21  1  0  0  0  0
 10 22  1  0  0  0  0
 10 23  1  0  0  0  0
 11 24  1  0  0  0  0
 11 25  1  0  0  0  0
 12 26  1  0  0  0  0
 12 27  1  0  0  0  0
 13 28  1  0  0  0  0
 13 29  1  0  0  0  0
 13 30  1  0  0  0  0
 15 31  1  0  0  0  0
M  CHG  1  16  -1
M  END
> <Hybrid2>
-3.937560558319092

> <Hybrid2>
-3.569684

$$$$
C37675561
  -OEChem-02152218503D

 32 34  0     1  0  0  0  0  0999 V2000
    5.3157  -29.0160   -8.6439 C   0  0  0  0  0  0  0  0  0  0  0  0
    4.8943  -27.6921   -8.4675 C   0  0  0  0  0  0  0  0  0  0  0  0
    6.5971  -29.2926   -9.1248 C   0  0  0  0  0  0  0  0  0  0  0  0
    5.7495  -26.6310   -8.7693 C   0  0  0  0  0  0  0  0  0  0  0  0
   13.1501  -26.4690  -12.6420 C   0  0  0  0  0  0  0  0  0  0  0  0
    7.4518  -28.2349   -9.4146 C   0  0  0  0  0  0  0  0  0  0  0  0
    7.0233  -26.9165   -9.2404 C   0  0  0  0  0  0  0  0  0  0  0  0
   14.5165  -26.6252  -13.0124 C   0  0  0  0  0  0  0  0  0  0  0  0
   12.9244  -27.0461  -11.4112 C   0  0  0  0  0  0  0  0  0  0  0  0
   12.0878  -25.7658  -13.4838 C   0  0  0  0  0  0  0  0  0  0  0  0
   10.4914  -26.7072  -10.8730 C   0  0  0  0  0  0  0  0  0  0  0  0
    8.8322  -28.3761   -9.9881 C   0  0  0  0  0  0  0  0  0  0  0  0
    9.5516  -27.0397   -9.7642 C   0  0  2  0  0  0  0  0  0  0  0  0
   15.1224  -26.1322  -14.2685 C   0  0  0  0  0  0  0  0  0  0  0  0
   15.3098  -27.2665  -12.1577 N   0  0  0  0  0  0  0  0  0  0  0  0
   11.7717  -27.1716  -10.6000 N   0  0  0  0  0  0  0  0  0  0  0  0
   11.9434  -24.5267  -13.2906 O   0  5  0  0  0  0  0  0  0  0  0  0
   11.4464  -26.4847  -14.2993 O   0  0  0  0  0  0  0  0  0  0  0  0
   10.1019  -26.1014  -11.8661 O   0  0  0  0  0  0  0  0  0  0  0  0
   14.3964  -27.7122  -10.8427 S   0  0  0  0  0  0  0  0  0  0  0  0
    8.2738  -25.7469   -9.6850 S   0  0  0  0  0  0  0  0  0  0  0  0
    4.6423  -29.8328   -8.3995 H   0  0  0  0  0  0  0  0  0  0  0  0
    3.8954  -27.4906   -8.0907 H   0  0  0  0  0  0  0  0  0  0  0  0
    6.9163  -30.3206   -9.2645 H   0  0  0  0  0  0  0  0  0  0  0  0
    5.4129  -25.6077   -8.6361 H   0  0  0  0  0  0  0  0  0  0  0  0
    9.3527  -29.1761   -9.4499 H   0  0  0  0  0  0  0  0  0  0  0  0
    8.7898  -28.6407  -11.0492 H   0  0  0  0  0  0  0  0  0  0  0  0
   10.1344  -27.0598   -8.8265 H   0  0  0  0  0  0  0  0  0  0  0  0
   15.5103  -25.1092  -14.1439 H   0  0  0  0  0  0  0  0  0  0  0  0
   15.9565  -26.7716  -14.6007 H   0  0  0  0  0  0  0  0  0  0  0  0
   14.3960  -26.1195  -15.0975 H   0  0  0  0  0  0  0  0  0  0  0  0
   11.9104  -27.6612   -9.7184 H   0  0  0  0  0  0  0  0  0  0  0  0
  1  2  1  0  0  0  0
  1  3  2  0  0  0  0
  2  4  2  0  0  0  0
  3  6  1  0  0  0  0
  4  7  1  0  0  0  0
  5  8  1  0  0  0  0
  5  9  2  0  0  0  0
  5 10  1  0  0  0  0
  6  7  2  0  0  0  0
  6 12  1  0  0  0  0
  7 21  1  0  0  0  0
  8 14  1  0  0  0  0
  8 15  2  0  0  0  0
  9 16  1  0  0  0  0
  9 20  1  0  0  0  0
 10 17  1  0  0  0  0
 10 18  2  0  0  0  0
 11 13  1  0  0  0  0
 11 16  1  0  0  0  0
 11 19  2  0  0  0  0
 12 13  1  0  0  0  0
 13 21  1  0  0  0  0
 15 20  1  0  0  0  0
  1 22  1  0  0  0  0
  2 23  1  0  0  0  0
  3 24  1  0  0  0  0
  4 25  1  0  0  0  0
 12 26  1  0  0  0  0
 12 27  1  0  0  0  0
 13 28  1  0  0  0  0
 14 29  1  0  0  0  0
 14 30  1  0  0  0  0
 14 31  1  0  0  0  0
 16 32  1  0  0  0  0
M  CHG  1  17  -1
M  END
> <Hybrid2>
-4.267459869384766

> <Hybrid2>
-4.267460

$$$$
C37675561
  -OEChem-02152218503D

 32 34  0     1  0  0  0  0  0999 V2000
   12.9575  -27.1516  -13.0212 C   0  0  0  0  0  0  0  0  0  0  0  0
   13.7412  -27.4490  -11.8992 C   0  0  0  0  0  0  0  0  0  0  0  0
   11.7063  -26.5506  -12.8711 C   0  0  0  0  0  0  0  0  0  0  0  0
   13.2819  -27.1489  -10.6157 C   0  0  0  0  0  0  0  0  0  0  0  0
    6.2203  -28.8454   -9.1372 C   0  0  0  0  0  0  0  0  0  0  0  0
   11.2454  -26.2621  -11.5913 C   0  0  0  0  0  0  0  0  0  0  0  0
   12.0344  -26.5567  -10.4766 C   0  0  0  0  0  0  0  0  0  0  0  0
    4.8486  -29.2034   -9.0012 C   0  0  0  0  0  0  0  0  0  0  0  0
    6.3374  -27.4871   -9.3382 C   0  0  0  0  0  0  0  0  0  0  0  0
    7.3926  -29.8216   -9.0709 C   0  0  0  0  0  0  0  0  0  0  0  0
    8.7910  -26.9838   -9.5634 C   0  0  0  0  0  0  0  0  0  0  0  0
    9.9479  -25.5700  -11.2802 C   0  0  0  0  0  0  0  0  0  0  0  0
    9.6580  -25.7843   -9.7880 C   0  0  2  0  0  0  0  0  0  0  0  0
    4.3424  -30.5747   -8.7746 C   0  0  0  0  0  0  0  0  0  0  0  0
    3.9520  -28.2234   -9.0848 N   0  0  0  0  0  0  0  0  0  0  0  0
    7.4478  -26.6311   -9.5292 N   0  0  0  0  0  0  0  0  0  0  0  0
    7.8954  -30.0236   -7.9309 O   0  5  0  0  0  0  0  0  0  0  0  0
    7.7570  -30.3414  -10.1620 O   0  0  0  0  0  0  0  0  0  0  0  0
    9.2835  -28.1004   -9.4391 O   0  0  0  0  0  0  0  0  0  0  0  0
    4.7691  -26.7986   -9.3386 S   0  0  0  0  0  0  0  0  0  0  0  0
   11.2486  -26.0932   -8.9605 S   0  0  0  0  0  0  0  0  0  0  0  0
   13.3289  -27.3856  -14.0151 H   0  0  0  0  0  0  0  0  0  0  0  0
   14.7142  -27.9142  -12.0299 H   0  0  0  0  0  0  0  0  0  0  0  0
   11.1087  -26.3111  -13.7450 H   0  0  0  0  0  0  0  0  0  0  0  0
   13.8964  -27.3807   -9.7514 H   0  0  0  0  0  0  0  0  0  0  0  0
   10.0662  -24.4996  -11.4885 H   0  0  0  0  0  0  0  0  0  0  0  0
    9.1385  -25.9567  -11.9096 H   0  0  0  0  0  0  0  0  0  0  0  0
    9.1526  -24.9184   -9.3493 H   0  0  0  0  0  0  0  0  0  0  0  0
    4.2705  -30.7955   -7.6982 H   0  0  0  0  0  0  0  0  0  0  0  0
    3.3437  -30.7222   -9.2171 H   0  0  0  0  0  0  0  0  0  0  0  0
    4.9966  -31.3347   -9.2324 H   0  0  0  0  0  0  0  0  0  0  0  0
    7.2225  -25.6465   -9.6557 H   0  0  0  0  0  0  0  0  0  0  0  0
  1  2  1  0  0  0  0
  1  3  2  0  0  0  0
  2  4  2  0  0  0  0
  3  6  1  0  0  0  0
  4  7  1  0  0  0  0
  5  8  1  0  0  0  0
  5  9  2  0  0  0  0
  5 10  1  0  0  0  0
  6  7  2  0  0  0  0
  6 12  1  0  0  0  0
  7 21  1  0  0  0  0
  8 14  1  0  0  0  0
  8 15  2  0  0  0  0
  9 16  1  0  0  0  0
  9 20  1  0  0  0  0
 10 17  1  0  0  0  0
 10 18  2  0  0  0  0
 11 13  1  0  0  0  0
 11 16  1  0  0  0  0
 11 19  2  0  0  0  0
 12 13  1  0  0  0  0
 13 21  1  0  0  0  0
 15 20  1  0  0  0  0
  1 22  1  0  0  0  0
  2 23  1  0  0  0  0
  3 24  1  0  0  0  0
  4 25  1  0  0  0  0
 12 26  1  0  0  0  0
 12 27  1  0  0  0  0
 13 28  1  0  0  0  0
 14 29  1  0  0  0  0
 14 30  1  0  0  0  0
 14 31  1  0  0  0  0
 16 32  1  0  0  0  0
M  CHG  1  17  -1
M  END
> <Hybrid2>
-4.267459869384766

> <Hybrid2>
-3.517275

$$$$
C37794884
  -OEChem-02152218503D

 35 36  0     1  0  0  0  0  0999 V2000
    4.7303  -29.3464   -8.1588 C   0  0  0  0  0  0  0  0  0  0  0  0
    6.9217  -29.2314   -9.2375 C   0  0  0  0  0  0  0  0  0  0  0  0
    8.0536  -28.5068   -9.6105 C   0  0  0  0  0  0  0  0  0  0  0  0
    5.9893  -27.2500   -8.2169 C   0  0  0  0  0  0  0  0  0  0  0  0
    5.8895  -28.6030   -8.5407 C   0  0  0  0  0  0  0  0  0  0  0  0
    8.1534  -27.1537   -9.2867 C   0  0  0  0  0  0  0  0  0  0  0  0
    7.1213  -26.5253   -8.5899 C   0  0  0  0  0  0  0  0  0  0  0  0
   10.4111  -26.9523  -10.3762 C   0  0  0  0  0  0  0  0  0  0  0  0
   10.5113  -25.3241  -12.8563 C   0  0  0  0  0  0  0  0  0  0  0  0
   13.4663  -27.4415  -10.4892 C   0  0  0  0  0  0  0  0  0  0  0  0
   13.7835  -27.1394  -11.9496 C   0  0  0  0  0  0  0  0  0  0  0  0
   12.7001  -26.2973   -9.8234 C   0  0  0  0  0  0  0  0  0  0  0  0
   12.5279  -26.7820  -12.7390 C   0  0  0  0  0  0  0  0  0  0  0  0
   11.4576  -25.8690  -10.6063 C   0  0  1  0  0  0  0  0  0  0  0  0
   11.7638  -25.6276  -12.0853 C   0  0  2  0  0  0  0  0  0  0  0  0
    3.7889  -29.9500   -7.8486 N   0  0  0  0  0  0  0  0  0  0  0  0
    9.3169  -26.4518   -9.6821 N   0  0  0  0  0  0  0  0  0  0  0  0
    9.6636  -26.2583  -12.8968 O   0  5  0  0  0  0  0  0  0  0  0  0
   10.5886  -28.0945  -10.7871 O   0  0  0  0  0  0  0  0  0  0  0  0
   10.4697  -24.1691  -13.3656 O   0  0  0  0  0  0  0  0  0  0  0  0
    7.2065  -24.6870   -8.1228 Br  0  0  0  0  0  0  0  0  0  0  0  0
    6.8585  -30.2855   -9.4970 H   0  0  0  0  0  0  0  0  0  0  0  0
    8.8512  -29.0087  -10.1527 H   0  0  0  0  0  0  0  0  0  0  0  0
    5.1821  -26.7633   -7.6728 H   0  0  0  0  0  0  0  0  0  0  0  0
   12.8789  -28.3645  -10.4214 H   0  0  0  0  0  0  0  0  0  0  0  0
   14.4008  -27.6186   -9.9419 H   0  0  0  0  0  0  0  0  0  0  0  0
   14.4983  -26.3109  -12.0040 H   0  0  0  0  0  0  0  0  0  0  0  0
   14.2747  -28.0083  -12.4027 H   0  0  0  0  0  0  0  0  0  0  0  0
   12.4253  -26.5890   -8.7932 H   0  0  0  0  0  0  0  0  0  0  0  0
   13.3795  -25.4340   -9.7010 H   0  0  0  0  0  0  0  0  0  0  0  0
   12.8172  -26.4861  -13.7502 H   0  0  0  0  0  0  0  0  0  0  0  0
   11.8929  -27.6654  -12.8281 H   0  0  0  0  0  0  0  0  0  0  0  0
   11.0660  -24.9713  -10.1547 H   0  0  0  0  0  0  0  0  0  0  0  0
   12.3850  -24.6996  -12.1585 H   0  0  0  0  0  0  0  0  0  0  0  0
    9.3417  -25.4679   -9.4224 H   0  0  0  0  0  0  0  0  0  0  0  0
  1  5  1  0  0  0  0
  1 16  3  0  0  0  0
  2  3  1  0  0  0  0
  2  5  2  0  0  0  0
  3  6  2  0  0  0  0
  4  5  1  0  0  0  0
  4  7  2  0  0  0  0
  6  7  1  0  0  0  0
  6 17  1  0  0  0  0
  7 21  1  0  0  0  0
  8 14  1  0  0  0  0
  8 17  1  0  0  0  0
  8 19  2  0  0  0  0
  9 15  1  0  0  0  0
  9 18  1  0  0  0  0
  9 20  2  0  0  0  0
 10 11  1  0  0  0  0
 10 12  1  0  0  0  0
 11 13  1  0  0  0  0
 12 14  1  0  0  0  0
 13 15  1  0  0  0  0
 14 15  1  0  0  0  0
  2 22  1  0  0  0  0
  3 23  1  0  0  0  0
  4 24  1  0  0  0  0
 10 25  1  0  0  0  0
 10 26  1  0  0  0  0
 11 27  1  0  0  0  0
 11 28  1  0  0  0  0
 12 29  1  0  0  0  0
 12 30  1  0  0  0  0
 13 31  1  0  0  0  0
 13 32  1  0  0  0  0
 14 33  1  0  0  0  0
 15 34  1  0  0  0  0
 17 35  1  0  0  0  0
M  CHG  1  18  -1
M  END
> <Hybrid2>
-3.5573065280914307

> <Hybrid2>
-3.557307

$$$$
C37794884
  -OEChem-02152218503D

 35 36  0     1  0  0  0  0  0999 V2000
    5.0840  -30.0059   -8.3008 C   0  0  0  0  0  0  0  0  0  0  0  0
    7.3220  -29.7828   -9.2602 C   0  0  0  0  0  0  0  0  0  0  0  0
    8.3897  -28.9875   -9.6764 C   0  0  0  0  0  0  0  0  0  0  0  0
    6.1003  -27.8025   -8.6101 C   0  0  0  0  0  0  0  0  0  0  0  0
    6.1773  -29.1903   -8.7271 C   0  0  0  0  0  0  0  0  0  0  0  0
    8.3127  -27.5997   -9.5594 C   0  0  0  0  0  0  0  0  0  0  0  0
    7.1680  -27.0072   -9.0263 C   0  0  0  0  0  0  0  0  0  0  0  0
   10.6074  -27.2853  -10.5391 C   0  0  0  0  0  0  0  0  0  0  0  0
   11.7096  -26.8535  -13.2614 C   0  0  0  0  0  0  0  0  0  0  0  0
   13.3915  -26.8311   -9.2628 C   0  0  0  0  0  0  0  0  0  0  0  0
   14.3258  -27.0658  -10.4446 C   0  0  0  0  0  0  0  0  0  0  0  0
   12.3051  -25.8052   -9.5896 C   0  0  0  0  0  0  0  0  0  0  0  0
   13.5582  -27.4557  -11.7040 C   0  0  0  0  0  0  0  0  0  0  0  0
   11.5396  -26.1274  -10.8742 C   0  0  1  0  0  0  0  0  0  0  0  0
   12.4783  -26.4254  -12.0445 C   0  0  2  0  0  0  0  0  0  0  0  0
    4.1963  -30.6682   -7.9545 N   0  0  0  0  0  0  0  0  0  0  0  0
    9.4158  -26.8263   -9.9924 N   0  0  0  0  0  0  0  0  0  0  0  0
   10.5250  -26.4232  -13.3297 O   0  5  0  0  0  0  0  0  0  0  0  0
   10.9419  -28.4448  -10.7589 O   0  0  0  0  0  0  0  0  0  0  0  0
   12.3513  -27.5913  -14.0608 O   0  0  0  0  0  0  0  0  0  0  0  0
    7.0113  -25.1239   -8.8433 Br  0  0  0  0  0  0  0  0  0  0  0  0
    7.3970  -30.8632   -9.3577 H   0  0  0  0  0  0  0  0  0  0  0  0
    9.2764  -29.4620  -10.0896 H   0  0  0  0  0  0  0  0  0  0  0  0
    5.2056  -27.3438   -8.1932 H   0  0  0  0  0  0  0  0  0  0  0  0
   12.9249  -27.7776   -8.9664 H   0  0  0  0  0  0  0  0  0  0  0  0
   13.9738  -26.4804   -8.4014 H   0  0  0  0  0  0  0  0  0  0  0  0
   14.9067  -26.1569  -10.6368 H   0  0  0  0  0  0  0  0  0  0  0  0
   15.0466  -27.8510  -10.1885 H   0  0  0  0  0  0  0  0  0  0  0  0
   11.6080  -25.7229   -8.7356 H   0  0  0  0  0  0  0  0  0  0  0  0
   12.7691  -24.8054   -9.6729 H   0  0  0  0  0  0  0  0  0  0  0  0
   14.2587  -27.5224  -12.5397 H   0  0  0  0  0  0  0  0  0  0  0  0
   13.1194  -28.4461  -11.5681 H   0  0  0  0  0  0  0  0  0  0  0  0
   10.9047  -25.2880  -11.1092 H   0  0  0  0  0  0  0  0  0  0  0  0
   12.9768  -25.4665  -12.3352 H   0  0  0  0  0  0  0  0  0  0  0  0
    9.3107  -25.8194   -9.8861 H   0  0  0  0  0  0  0  0  0  0  0  0
  1  5  1  0  0  0  0
  1 16  3  0  0  0  0
  2  3  1  0  0  0  0
  2  5  2  0  0  0  0
  3  6  2  0  0  0  0
  4  5  1  0  0  0  0
  4  7  2  0  0  0  0
  6  7  1  0  0  0  0
  6 17  1  0  0  0  0
  7 21  1  0  0  0  0
  8 14  1  0  0  0  0
  8 17  1  0  0  0  0
  8 19  2  0  0  0  0
  9 15  1  0  0  0  0
  9 18  1  0  0  0  0
  9 20  2  0  0  0  0
 10 11  1  0  0  0  0
 10 12  1  0  0  0  0
 11 13  1  0  0  0  0
 12 14  1  0  0  0  0
 13 15  1  0  0  0  0
 14 15  1  0  0  0  0
  2 22  1  0  0  0  0
  3 23  1  0  0  0  0
  4 24  1  0  0  0  0
 10 25  1  0  0  0  0
 10 26  1  0  0  0  0
 11 27  1  0  0  0  0
 11 28  1  0  0  0  0
 12 29  1  0  0  0  0
 12 30  1  0  0  0  0
 13 31  1  0  0  0  0
 13 32  1  0  0  0  0
 14 33  1  0  0  0  0
 15 34  1  0  0  0  0
 17 35  1  0  0  0  0
M  CHG  1  18  -1
M  END
> <Hybrid2>
-3.5573065280914307

> <Hybrid2>
-3.324482

$$$$
C00038147
  -OEChem-02152218503D

 35 37  0     0  0  0  0  0  0999 V2000
   11.7975  -26.2505  -12.9872 C   0  0  0  0  0  0  0  0  0  0  0  0
   13.0720  -25.7768  -13.3800 C   0  0  0  0  0  0  0  0  0  0  0  0
    7.5905  -26.9670   -9.6459 C   0  0  0  0  0  0  0  0  0  0  0  0
    6.7003  -27.8355   -8.9460 C   0  0  0  0  0  0  0  0  0  0  0  0
   11.9991  -26.9838  -11.8410 C   0  0  0  0  0  0  0  0  0  0  0  0
    7.1468  -29.1432   -8.9749 C   0  0  0  0  0  0  0  0  0  0  0  0
   13.9616  -26.2541  -12.4458 C   0  0  0  0  0  0  0  0  0  0  0  0
    8.6659  -27.6447  -10.1789 C   0  0  0  0  0  0  0  0  0  0  0  0
    7.3761  -25.4584   -9.7946 C   0  0  0  0  0  0  0  0  0  0  0  0
   11.0621  -27.7193  -10.9746 C   0  0  0  0  0  0  0  0  0  0  0  0
    5.4462  -27.4376   -8.2311 C   0  0  0  0  0  0  0  0  0  0  0  0
    6.4355  -30.3082   -8.3611 C   0  0  0  0  0  0  0  0  0  0  0  0
    4.5547  -28.6513   -7.9252 C   0  0  0  0  0  0  0  0  0  0  0  0
    5.3697  -29.8258   -7.3643 C   0  0  0  0  0  0  0  0  0  0  0  0
   15.4164  -26.1220  -12.2835 C   0  0  0  0  0  0  0  0  0  0  0  0
    9.7335  -27.2033  -10.9118 N   0  0  0  0  0  0  0  0  0  0  0  0
    8.2546  -24.8286  -10.4430 O   0  5  0  0  0  0  0  0  0  0  0  0
    6.3407  -24.9834   -9.2550 O   0  0  0  0  0  0  0  0  0  0  0  0
   11.4328  -28.6965  -10.3278 O   0  0  0  0  0  0  0  0  0  0  0  0
   13.3156  -26.9908  -11.5042 O   0  0  0  0  0  0  0  0  0  0  0  0
    8.6046  -29.3214   -9.8358 S   0  0  0  0  0  0  0  0  0  0  0  0
   10.8516  -26.0776  -13.4805 H   0  0  0  0  0  0  0  0  0  0  0  0
   13.3097  -25.1645  -14.2383 H   0  0  0  0  0  0  0  0  0  0  0  0
    5.6846  -26.9202   -7.2948 H   0  0  0  0  0  0  0  0  0  0  0  0
    4.8932  -26.7325   -8.8640 H   0  0  0  0  0  0  0  0  0  0  0  0
    5.9609  -30.9299   -9.1286 H   0  0  0  0  0  0  0  0  0  0  0  0
    7.1676  -30.9325   -7.8340 H   0  0  0  0  0  0  0  0  0  0  0  0
    3.7854  -28.3684   -7.1948 H   0  0  0  0  0  0  0  0  0  0  0  0
    4.0319  -28.9606   -8.8373 H   0  0  0  0  0  0  0  0  0  0  0  0
    4.6882  -30.6528   -7.1273 H   0  0  0  0  0  0  0  0  0  0  0  0
    5.8539  -29.5322   -6.4262 H   0  0  0  0  0  0  0  0  0  0  0  0
   15.6758  -25.2388  -11.6728 H   0  0  0  0  0  0  0  0  0  0  0  0
   15.8664  -27.0053  -11.7936 H   0  0  0  0  0  0  0  0  0  0  0  0
   15.9394  -26.0183  -13.2523 H   0  0  0  0  0  0  0  0  0  0  0  0
    9.5505  -26.3732  -11.5082 H   0  0  0  0  0  0  0  0  0  0  0  0
  1  2  1  0  0  0  0
  1  5  2  0  0  0  0
  2  7  2  0  0  0  0
  3  4  1  0  0  0  0
  3  8  2  0  0  0  0
  3  9  1  0  0  0  0
  4  6  2  0  0  0  0
  4 11  1  0  0  0  0
  5 10  1  0  0  0  0
  5 20  1  0  0  0  0
  6 12  1  0  0  0  0
  6 21  1  0  0  0  0
  7 15  1  0  0  0  0
  7 20  1  0  0  0  0
  8 16  1  0  0  0  0
  8 21  1  0  0  0  0
  9 17  1  0  0  0  0
  9 18  2  0  0  0  0
 10 16  1  0  0  0  0
 10 19  2  0  0  0  0
 11 13  1  0  0  0  0
 12 14  1  0  0  0  0
 13 14  1  0  0  0  0
  1 22  1  0  0  0  0
  2 23  1  0  0  0  0
 11 24  1  0  0  0  0
 11 25  1  0  0  0  0
 12 26  1  0  0  0  0
 12 27  1  0  0  0  0
 13 28  1  0  0  0  0
 13 29  1  0  0  0  0
 14 30  1  0  0  0  0
 14 31  1  0  0  0  0
 15 32  1  0  0  0  0
 15 33  1  0  0  0  0
 15 34  1  0  0  0  0
 16 35  1  0  0  0  0
M  CHG  1  17  -1
M  END
> <Hybrid2>
-4.178166389465332

> <Hybrid2>
-4.178166

$$$$
C00038147
  -OEChem-02152218503D

 35 37  0     0  0  0  0  0  0999 V2000
   12.6218  -25.1977  -11.6498 C   0  0  0  0  0  0  0  0  0  0  0  0
   13.8424  -25.7835  -12.0624 C   0  0  0  0  0  0  0  0  0  0  0  0
    7.6066  -27.1011   -9.5532 C   0  0  0  0  0  0  0  0  0  0  0  0
    6.5155  -27.8793   -9.0627 C   0  0  0  0  0  0  0  0  0  0  0  0
   11.8261  -26.2346  -11.2214 C   0  0  0  0  0  0  0  0  0  0  0  0
    6.8368  -29.2226   -9.0153 C   0  0  0  0  0  0  0  0  0  0  0  0
   13.7056  -27.1366  -11.8565 C   0  0  0  0  0  0  0  0  0  0  0  0
    8.7063  -27.8771   -9.8506 C   0  0  0  0  0  0  0  0  0  0  0  0
    7.5624  -25.5816   -9.7350 C   0  0  0  0  0  0  0  0  0  0  0  0
   10.4553  -26.2556  -10.6827 C   0  0  0  0  0  0  0  0  0  0  0  0
    5.1661  -27.3686   -8.6622 C   0  0  0  0  0  0  0  0  0  0  0  0
    5.9289  -30.3072   -8.5259 C   0  0  0  0  0  0  0  0  0  0  0  0
    4.3866  -28.4045   -7.8370 C   0  0  0  0  0  0  0  0  0  0  0  0
    4.4774  -29.8063   -8.4575 C   0  0  0  0  0  0  0  0  0  0  0  0
   14.5988  -28.2826  -12.0780 C   0  0  0  0  0  0  0  0  0  0  0  0
    9.9401  -27.5401  -10.3362 N   0  0  0  0  0  0  0  0  0  0  0  0
    7.1699  -25.1624  -10.8571 O   0  5  0  0  0  0  0  0  0  0  0  0
    7.9228  -24.8879   -8.7461 O   0  0  0  0  0  0  0  0  0  0  0  0
    9.8009  -25.2205  -10.5777 O   0  0  0  0  0  0  0  0  0  0  0  0
   12.4793  -27.4199  -11.3440 O   0  0  0  0  0  0  0  0  0  0  0  0
    8.4249  -29.5377   -9.5414 S   0  0  0  0  0  0  0  0  0  0  0  0
   12.3581  -24.1498  -11.6645 H   0  0  0  0  0  0  0  0  0  0  0  0
   14.7116  -25.2797  -12.4607 H   0  0  0  0  0  0  0  0  0  0  0  0
    5.2612  -26.4435   -8.0825 H   0  0  0  0  0  0  0  0  0  0  0  0
    4.6001  -27.1297   -9.5711 H   0  0  0  0  0  0  0  0  0  0  0  0
    5.9795  -31.1878   -9.1761 H   0  0  0  0  0  0  0  0  0  0  0  0
    6.2529  -30.6151   -7.5240 H   0  0  0  0  0  0  0  0  0  0  0  0
    4.7873  -28.4386   -6.8155 H   0  0  0  0  0  0  0  0  0  0  0  0
    3.3379  -28.0967   -7.7597 H   0  0  0  0  0  0  0  0  0  0  0  0
    4.0511  -29.7779   -9.4685 H   0  0  0  0  0  0  0  0  0  0  0  0
    3.8745  -30.5133   -7.8765 H   0  0  0  0  0  0  0  0  0  0  0  0
   15.2176  -28.4901  -11.1868 H   0  0  0  0  0  0  0  0  0  0  0  0
   14.0433  -29.2084  -12.3166 H   0  0  0  0  0  0  0  0  0  0  0  0
   15.2881  -28.1199  -12.9274 H   0  0  0  0  0  0  0  0  0  0  0  0
   10.5962  -28.3335  -10.4721 H   0  0  0  0  0  0  0  0  0  0  0  0
  1  2  1  0  0  0  0
  1  5  2  0  0  0  0
  2  7  2  0  0  0  0
  3  4  1  0  0  0  0
  3  8  2  0  0  0  0
  3  9  1  0  0  0  0
  4  6  2  0  0  0  0
  4 11  1  0  0  0  0
  5 10  1  0  0  0  0
  5 20  1  0  0  0  0
  6 12  1  0  0  0  0
  6 21  1  0  0  0  0
  7 15  1  0  0  0  0
  7 20  1  0  0  0  0
  8 16  1  0  0  0  0
  8 21  1  0  0  0  0
  9 17  1  0  0  0  0
  9 18  2  0  0  0  0
 10 16  1  0  0  0  0
 10 19  2  0  0  0  0
 11 13  1  0  0  0  0
 12 14  1  0  0  0  0
 13 14  1  0  0  0  0
  1 22  1  0  0  0  0
  2 23  1  0  0  0  0
 11 24  1  0  0  0  0
 11 25  1  0  0  0  0
 12 26  1  0  0  0  0
 12 27  1  0  0  0  0
 13 28  1  0  0  0  0
 13 29  1  0  0  0  0
 14 30  1  0  0  0  0
 14 31  1  0  0  0  0
 15 32  1  0  0  0  0
 15 33  1  0  0  0  0
 15 34  1  0  0  0  0
 16 35  1  0  0  0  0
M  CHG  1  17  -1
M  END
> <Hybrid2>
-4.178166389465332

> <Hybrid2>
-4.177972

$$$$
C17723237
  -OEChem-02152218503D

 36 38  0     1  0  0  0  0  0999 V2000
   10.4100  -26.9545   -9.8452 C   0  0  0  0  0  0  0  0  0  0  0  0
    8.7607  -26.1538  -11.4187 C   0  0  0  0  0  0  0  0  0  0  0  0
   11.3513  -27.0325  -10.8716 C   0  0  0  0  0  0  0  0  0  0  0  0
    9.7020  -26.2318  -12.4451 C   0  0  0  0  0  0  0  0  0  0  0  0
    9.1147  -26.5151  -10.1187 C   0  0  0  0  0  0  0  0  0  0  0  0
    6.8944  -27.3195   -9.2256 C   0  0  0  0  0  0  0  0  0  0  0  0
   10.9973  -26.6712  -12.1715 C   0  0  0  0  0  0  0  0  0  0  0  0
    5.6846  -26.8169   -9.6848 C   0  0  0  0  0  0  0  0  0  0  0  0
    6.9453  -28.6942   -9.0495 C   0  0  0  0  0  0  0  0  0  0  0  0
    4.7983  -28.9210   -9.7474 C   0  0  0  0  0  0  0  0  0  0  0  0
    6.4999  -24.4925   -9.5658 C   0  0  0  0  0  0  0  0  0  0  0  0
    7.6465  -24.9910   -8.7074 C   0  0  0  0  0  0  0  0  0  0  0  0
    8.0870  -26.4321   -8.9983 C   0  0  2  0  0  0  0  0  0  0  0  0
   13.4436  -25.6303  -12.8391 C   0  0  0  0  0  0  0  0  0  0  0  0
    3.7103  -31.2864   -8.8905 C   0  0  0  0  0  0  0  0  0  0  0  0
    4.6221  -27.6039   -9.9651 N   0  0  0  0  0  0  0  0  0  0  0  0
    5.9117  -29.5241   -9.2956 N   0  0  0  0  0  0  0  0  0  0  0  0
    5.5531  -25.4346   -9.9089 N   0  0  0  0  0  0  0  0  0  0  0  0
    7.9910  -29.3066   -8.6360 O   0  5  0  0  0  0  0  0  0  0  0  0
    6.3900  -23.2996   -9.8504 O   0  0  0  0  0  0  0  0  0  0  0  0
   12.1997  -26.7708  -13.4828 S   0  0  0  0  0  0  0  0  0  0  0  0
    3.4074  -29.9773  -10.0978 S   0  0  0  0  0  0  0  0  0  0  0  0
   10.6947  -27.2382   -8.8355 H   0  0  0  0  0  0  0  0  0  0  0  0
    7.7537  -25.8109  -11.6411 H   0  0  0  0  0  0  0  0  0  0  0  0
   12.3559  -27.3779  -10.6389 H   0  0  0  0  0  0  0  0  0  0  0  0
    9.4072  -25.9461  -13.4519 H   0  0  0  0  0  0  0  0  0  0  0  0
    8.4876  -24.2932   -8.8011 H   0  0  0  0  0  0  0  0  0  0  0  0
    7.2887  -24.9300   -7.6704 H   0  0  0  0  0  0  0  0  0  0  0  0
    8.6251  -26.7777   -8.0628 H   0  0  0  0  0  0  0  0  0  0  0  0
   14.2829  -25.5639  -13.5356 H   0  0  0  0  0  0  0  0  0  0  0  0
   13.8095  -25.9870  -11.8731 H   0  0  0  0  0  0  0  0  0  0  0  0
   13.0058  -24.6374  -12.7110 H   0  0  0  0  0  0  0  0  0  0  0  0
    2.9295  -32.0474   -8.9637 H   0  0  0  0  0  0  0  0  0  0  0  0
    3.7067  -30.8681   -7.8809 H   0  0  0  0  0  0  0  0  0  0  0  0
    4.6809  -31.7504   -9.0818 H   0  0  0  0  0  0  0  0  0  0  0  0
    4.7018  -25.1270  -10.3695 H   0  0  0  0  0  0  0  0  0  0  0  0
  1  3  2  0  0  0  0
  1  5  1  0  0  0  0
  2  4  1  0  0  0  0
  2  5  2  0  0  0  0
  3  7  1  0  0  0  0
  4  7  2  0  0  0  0
  5 13  1  0  0  0  0
  6  8  1  0  0  0  0
  6  9  2  0  0  0  0
  6 13  1  0  0  0  0
  7 21  1  0  0  0  0
  8 16  2  0  0  0  0
  8 18  1  0  0  0  0
  9 17  1  0  0  0  0
  9 19  1  0  0  0  0
 10 16  1  0  0  0  0
 10 17  2  0  0  0  0
 10 22  1  0  0  0  0
 11 12  1  0  0  0  0
 11 18  1  0  0  0  0
 11 20  2  0  0  0  0
 12 13  1  0  0  0  0
 14 21  1  0  0  0  0
 15 22  1  0  0  0  0
  1 23  1  0  0  0  0
  2 24  1  0  0  0  0
  3 25  1  0  0  0  0
  4 26  1  0  0  0  0
 12 27  1  0  0  0  0
 12 28  1  0  0  0  0
 13 29  1  0  0  0  0
 14 30  1  0  0  0  0
 14 31  1  0  0  0  0
 14 32  1  0  0  0  0
 15 33  1  0  0  0  0
 15 34  1  0  0  0  0
 15 35  1  0  0  0  0
 18 36  1  0  0  0  0
M  CHG  1  19  -1
M  END
> <Hybrid2>
-5.514992713928223

> <Hybrid2>
-5.514993

$$$$
C17723237
  -OEChem-02152218503D

 36 38  0     1  0  0  0  0  0999 V2000
   10.8665  -27.4798   -9.8547 C   0  0  0  0  0  0  0  0  0  0  0  0
    9.0808  -26.4356  -11.1028 C   0  0  0  0  0  0  0  0  0  0  0  0
   11.7121  -27.3506  -10.9565 C   0  0  0  0  0  0  0  0  0  0  0  0
    9.9264  -26.3063  -12.2045 C   0  0  0  0  0  0  0  0  0  0  0  0
    9.5508  -27.0224   -9.9279 C   0  0  0  0  0  0  0  0  0  0  0  0
    7.4216  -28.0187   -9.0070 C   0  0  0  0  0  0  0  0  0  0  0  0
   11.2421  -26.7638  -12.1314 C   0  0  0  0  0  0  0  0  0  0  0  0
    6.1743  -27.4634   -9.2578 C   0  0  0  0  0  0  0  0  0  0  0  0
    7.4914  -29.4012   -9.0924 C   0  0  0  0  0  0  0  0  0  0  0  0
    5.2910  -29.5367   -9.6292 C   0  0  0  0  0  0  0  0  0  0  0  0
    6.9913  -25.1853   -8.7844 C   0  0  0  0  0  0  0  0  0  0  0  0
    8.2114  -25.8110   -8.1366 C   0  0  0  0  0  0  0  0  0  0  0  0
    8.6276  -27.1656   -8.7256 C   0  0  2  0  0  0  0  0  0  0  0  0
   13.6160  -25.5721  -12.8076 C   0  0  0  0  0  0  0  0  0  0  0  0
    2.9837  -29.3745  -11.1000 C   0  0  0  0  0  0  0  0  0  0  0  0
    5.0928  -28.2057   -9.5840 N   0  0  0  0  0  0  0  0  0  0  0  0
    6.4420  -30.1913   -9.3957 N   0  0  0  0  0  0  0  0  0  0  0  0
    6.0198  -26.0662   -9.2109 N   0  0  0  0  0  0  0  0  0  0  0  0
    8.5715  -30.0591   -8.8923 O   0  5  0  0  0  0  0  0  0  0  0  0
    6.8534  -23.9627   -8.8335 O   0  0  0  0  0  0  0  0  0  0  0  0
   12.3222  -26.5985  -13.5389 S   0  0  0  0  0  0  0  0  0  0  0  0
    3.8769  -30.5371  -10.0448 S   0  0  0  0  0  0  0  0  0  0  0  0
   11.2413  -27.9385   -8.9435 H   0  0  0  0  0  0  0  0  0  0  0  0
    8.0571  -26.0768  -11.1690 H   0  0  0  0  0  0  0  0  0  0  0  0
   12.7344  -27.7137  -10.8804 H   0  0  0  0  0  0  0  0  0  0  0  0
    9.5417  -25.8464  -13.1117 H   0  0  0  0  0  0  0  0  0  0  0  0
    9.0391  -25.0920   -8.1735 H   0  0  0  0  0  0  0  0  0  0  0  0
    7.9480  -25.9479   -7.0788 H   0  0  0  0  0  0  0  0  0  0  0  0
    9.2483  -27.6666   -7.9207 H   0  0  0  0  0  0  0  0  0  0  0  0
   14.3893  -25.3632  -13.5509 H   0  0  0  0  0  0  0  0  0  0  0  0
   14.0680  -26.0929  -11.9599 H   0  0  0  0  0  0  0  0  0  0  0  0
   13.1891  -24.6279  -12.4609 H   0  0  0  0  0  0  0  0  0  0  0  0
    2.0588  -29.8328  -11.4584 H   0  0  0  0  0  0  0  0  0  0  0  0
    3.6024  -29.1019  -11.9585 H   0  0  0  0  0  0  0  0  0  0  0  0
    2.7396  -28.4720  -10.5343 H   0  0  0  0  0  0  0  0  0  0  0  0
    5.1299  -25.6956   -9.5304 H   0  0  0  0  0  0  0  0  0  0  0  0
  1  3  2  0  0  0  0
  1  5  1  0  0  0  0
  2  4  1  0  0  0  0
  2  5  2  0  0  0  0
  3  7  1  0  0  0  0
  4  7  2  0  0  0  0
  5 13  1  0  0  0  0
  6  8  1  0  0  0  0
  6  9  2  0  0  0  0
  6 13  1  0  0  0  0
  7 21  1  0  0  0  0
  8 16  2  0  0  0  0
  8 18  1  0  0  0  0
  9 17  1  0  0  0  0
  9 19  1  0  0  0  0
 10 16  1  0  0  0  0
 10 17  2  0  0  0  0
 10 22  1  0  0  0  0
 11 12  1  0  0  0  0
 11 18  1  0  0  0  0
 11 20  2  0  0  0  0
 12 13  1  0  0  0  0
 14 21  1  0  0  0  0
 15 22  1  0  0  0  0
  1 23  1  0  0  0  0
  2 24  1  0  0  0  0
  3 25  1  0  0  0  0
  4 26  1  0  0  0  0
 12 27  1  0  0  0  0
 12 28  1  0  0  0  0
 13 29  1  0  0  0  0
 14 30  1  0  0  0  0
 14 31  1  0  0  0  0
 14 32  1  0  0  0  0
 15 33  1  0  0  0  0
 15 34  1  0  0  0  0
 15 35  1  0  0  0  0
 18 36  1  0  0  0  0
M  CHG  1  19  -1
M  END
> <Hybrid2>
-5.514992713928223

> <Hybrid2>
-5.014681

$$$$
C38025852
  -OEChem-02152218503D

 32 33  0     1  0  0  0  0  0999 V2000
   11.4378  -27.1000  -12.3752 C   0  0  0  0  0  0  0  0  0  0  0  0
   13.6005  -26.4768  -12.3092 C   0  0  0  0  0  0  0  0  0  0  0  0
   12.5820  -26.8313  -13.1662 C   0  0  0  0  0  0  0  0  0  0  0  0
   11.7918  -26.9013  -11.0589 C   0  0  0  0  0  0  0  0  0  0  0  0
   10.9599  -27.0504   -9.8584 C   0  0  0  0  0  0  0  0  0  0  0  0
    7.2112  -29.7922   -9.3659 C   0  0  0  0  0  0  0  0  0  0  0  0
    6.8340  -25.9239   -9.5939 C   0  0  0  0  0  0  0  0  0  0  0  0
    7.8677  -25.0329  -10.2708 C   0  0  0  0  0  0  0  0  0  0  0  0
    7.5130  -26.8460   -8.5867 C   0  0  0  0  0  0  0  0  0  0  0  0
    8.9801  -25.8537  -10.9145 C   0  0  0  0  0  0  0  0  0  0  0  0
    8.6526  -27.6639   -9.2084 C   0  0  1  0  0  0  0  0  0  0  0  0
    8.1379  -28.8134  -10.0790 C   0  0  0  0  0  0  0  0  0  0  0  0
   13.1086  -26.5225  -11.0308 N   0  0  0  0  0  0  0  0  0  0  0  0
    9.5834  -26.8088   -9.9695 N   0  0  0  0  0  0  0  0  0  0  0  0
    7.6870  -30.4223   -8.3821 O   0  5  0  0  0  0  0  0  0  0  0  0
   11.5477  -27.3904   -8.8324 O   0  0  0  0  0  0  0  0  0  0  0  0
    6.0508  -29.8463   -9.8673 O   0  0  0  0  0  0  0  0  0  0  0  0
   12.6471  -26.9513  -15.0301 Br  0  0  0  0  0  0  0  0  0  0  0  0
   10.4597  -27.4055  -12.7234 H   0  0  0  0  0  0  0  0  0  0  0  0
   14.6290  -26.1969  -12.4901 H   0  0  0  0  0  0  0  0  0  0  0  0
    6.0886  -25.3039   -9.0832 H   0  0  0  0  0  0  0  0  0  0  0  0
    6.2971  -26.5134  -10.3458 H   0  0  0  0  0  0  0  0  0  0  0  0
    7.3780  -24.4166  -11.0333 H   0  0  0  0  0  0  0  0  0  0  0  0
    8.3005  -24.3448   -9.5341 H   0  0  0  0  0  0  0  0  0  0  0  0
    7.9201  -26.2385   -7.7678 H   0  0  0  0  0  0  0  0  0  0  0  0
    6.7673  -27.5126   -8.1378 H   0  0  0  0  0  0  0  0  0  0  0  0
    8.5859  -26.4366  -11.7550 H   0  0  0  0  0  0  0  0  0  0  0  0
    9.7294  -25.1720  -11.3253 H   0  0  0  0  0  0  0  0  0  0  0  0
    9.2057  -28.1240   -8.3807 H   0  0  0  0  0  0  0  0  0  0  0  0
    8.9987  -29.3648  -10.4620 H   0  0  0  0  0  0  0  0  0  0  0  0
    7.6047  -28.3861  -10.9305 H   0  0  0  0  0  0  0  0  0  0  0  0
   13.6380  -26.3095  -10.1965 H   0  0  0  0  0  0  0  0  0  0  0  0
  1  3  1  0  0  0  0
  1  4  2  0  0  0  0
  2  3  2  0  0  0  0
  2 13  1  0  0  0  0
  3 18  1  0  0  0  0
  4  5  1  0  0  0  0
  4 13  1  0  0  0  0
  5 14  1  0  0  0  0
  5 16  2  0  0  0  0
  6 12  1  0  0  0  0
  6 15  1  0  0  0  0
  6 17  2  0  0  0  0
  7  8  1  0  0  0  0
  7  9  1  0  0  0  0
  8 10  1  0  0  0  0
  9 11  1  0  0  0  0
 10 14  1  0  0  0  0
 11 12  1  0  0  0  0
 11 14  1  0  0  0  0
  1 19  1  0  0  0  0
  2 20  1  0  0  0  0
  7 21  1  0  0  0  0
  7 22  1  0  0  0  0
  8 23  1  0  0  0  0
  8 24  1  0  0  0  0
  9 25  1  0  0  0  0
  9 26  1  0  0  0  0
 10 27  1  0  0  0  0
 10 28  1  0  0  0  0
 11 29  1  0  0  0  0
 12 30  1  0  0  0  0
 12 31  1  0  0  0  0
 13 32  1  0  0  0  0
M  CHG  1  15  -1
M  END
> <Hybrid2>
-4.833550930023193

> <Hybrid2>
-4.833551

$$$$
C38025852
  -OEChem-02152218503D

 32 33  0     1  0  0  0  0  0999 V2000
   11.8761  -26.5717  -10.7601 C   0  0  0  0  0  0  0  0  0  0  0  0
   11.5470  -27.1924  -12.8993 C   0  0  0  0  0  0  0  0  0  0  0  0
   12.4279  -26.5410  -12.0645 C   0  0  0  0  0  0  0  0  0  0  0  0
   10.6747  -27.2411  -10.8374 C   0  0  0  0  0  0  0  0  0  0  0  0
    9.7237  -27.5354   -9.7582 C   0  0  0  0  0  0  0  0  0  0  0  0
    7.3019  -29.9876   -9.3646 C   0  0  0  0  0  0  0  0  0  0  0  0
    5.9564  -25.4999   -9.5960 C   0  0  0  0  0  0  0  0  0  0  0  0
    7.0801  -25.0371  -10.5147 C   0  0  0  0  0  0  0  0  0  0  0  0
    6.5271  -26.2928   -8.4250 C   0  0  0  0  0  0  0  0  0  0  0  0
    7.9363  -26.2074  -10.9866 C   0  0  0  0  0  0  0  0  0  0  0  0
    7.4126  -27.4613   -8.8775 C   0  0  1  0  0  0  0  0  0  0  0  0
    6.5948  -28.6376   -9.4177 C   0  0  0  0  0  0  0  0  0  0  0  0
   10.4851  -27.6140  -12.1424 N   0  0  0  0  0  0  0  0  0  0  0  0
    8.4206  -27.0293   -9.8645 N   0  0  0  0  0  0  0  0  0  0  0  0
    8.3690  -30.1047  -10.0271 O   0  5  0  0  0  0  0  0  0  0  0  0
   10.1525  -28.2233   -8.8327 O   0  0  0  0  0  0  0  0  0  0  0  0
    6.7099  -30.8402   -8.6411 O   0  0  0  0  0  0  0  0  0  0  0  0
   14.0579  -25.7475  -12.5188 Br  0  0  0  0  0  0  0  0  0  0  0  0
   12.3047  -26.1525   -9.8591 H   0  0  0  0  0  0  0  0  0  0  0  0
   11.5768  -27.3945  -13.9610 H   0  0  0  0  0  0  0  0  0  0  0  0
    5.4044  -24.6312   -9.2199 H   0  0  0  0  0  0  0  0  0  0  0  0
    5.2420  -26.1132  -10.1569 H   0  0  0  0  0  0  0  0  0  0  0  0
    6.6552  -24.5198  -11.3823 H   0  0  0  0  0  0  0  0  0  0  0  0
    7.7116  -24.3110   -9.9880 H   0  0  0  0  0  0  0  0  0  0  0  0
    7.1251  -25.6186   -7.7978 H   0  0  0  0  0  0  0  0  0  0  0  0
    5.7079  -26.6583   -7.7945 H   0  0  0  0  0  0  0  0  0  0  0  0
    7.3539  -26.8661  -11.6412 H   0  0  0  0  0  0  0  0  0  0  0  0
    8.7657  -25.8197  -11.5839 H   0  0  0  0  0  0  0  0  0  0  0  0
    7.9371  -27.8295   -7.9876 H   0  0  0  0  0  0  0  0  0  0  0  0
    6.3308  -28.4232  -10.4550 H   0  0  0  0  0  0  0  0  0  0  0  0
    5.6703  -28.7056   -8.8411 H   0  0  0  0  0  0  0  0  0  0  0  0
    9.6852  -28.1217  -12.4951 H   0  0  0  0  0  0  0  0  0  0  0  0
  1  3  1  0  0  0  0
  1  4  2  0  0  0  0
  2  3  2  0  0  0  0
  2 13  1  0  0  0  0
  3 18  1  0  0  0  0
  4  5  1  0  0  0  0
  4 13  1  0  0  0  0
  5 14  1  0  0  0  0
  5 16  2  0  0  0  0
  6 12  1  0  0  0  0
  6 15  1  0  0  0  0
  6 17  2  0  0  0  0
  7  8  1  0  0  0  0
  7  9  1  0  0  0  0
  8 10  1  0  0  0  0
  9 11  1  0  0  0  0
 10 14  1  0  0  0  0
 11 12  1  0  0  0  0
 11 14  1  0  0  0  0
  1 19  1  0  0  0  0
  2 20  1  0  0  0  0
  7 21  1  0  0  0  0
  7 22  1  0  0  0  0
  8 23  1  0  0  0  0
  8 24  1  0  0  0  0
  9 25  1  0  0  0  0
  9 26  1  0  0  0  0
 10 27  1  0  0  0  0
 10 28  1  0  0  0  0
 11 29  1  0  0  0  0
 12 30  1  0  0  0  0
 12 31  1  0  0  0  0
 13 32  1  0  0  0  0
M  CHG  1  15  -1
M  END
> <Hybrid2>
-4.833550930023193

> <Hybrid2>
-3.473628

$$$$
C38058656
  -OEChem-02152218503D

 35 36  0     1  0  0  0  0  0999 V2000
   10.5787  -26.1262  -12.8548 C   0  0  0  0  0  0  0  0  0  0  0  0
    9.2834  -25.5836  -12.6144 C   0  0  0  0  0  0  0  0  0  0  0  0
   11.2014  -26.5149  -11.6891 C   0  0  0  0  0  0  0  0  0  0  0  0
    8.9652  -25.5784  -11.2740 C   0  0  0  0  0  0  0  0  0  0  0  0
   12.6010  -27.1342  -11.6243 C   0  0  0  0  0  0  0  0  0  0  0  0
    5.5611  -28.5685   -7.3601 C   0  0  0  0  0  0  0  0  0  0  0  0
    6.0353  -29.9194   -7.8900 C   0  0  0  0  0  0  0  0  0  0  0  0
    5.4393  -27.5372   -8.4777 C   0  0  0  0  0  0  0  0  0  0  0  0
    7.2223  -28.7547   -9.7935 C   0  0  0  0  0  0  0  0  0  0  0  0
    7.3509  -29.7919   -8.6693 C   0  0  2  0  0  0  0  0  0  0  0  0
    6.7465  -27.4001   -9.2612 C   0  0  1  0  0  0  0  0  0  0  0  0
    7.7779  -31.1466   -9.2314 C   0  0  0  0  0  0  0  0  0  0  0  0
    6.5968  -26.4563  -10.3426 N   0  0  0  0  0  0  0  0  0  0  0  0
   13.0275  -27.4348  -10.4773 O   0  5  0  0  0  0  0  0  0  0  0  0
   13.1974  -27.2860  -12.7239 O   0  0  0  0  0  0  0  0  0  0  0  0
    7.9650  -24.7217   -9.0211 O   0  0  0  0  0  0  0  0  0  0  0  0
    6.8725  -24.0502  -11.1844 O   0  0  0  0  0  0  0  0  0  0  0  0
   10.2255  -26.2256  -10.3121 S   0  0  0  0  0  0  0  0  0  0  0  0
    7.5424  -25.0461  -10.3702 S   0  0  0  0  0  0  0  0  0  0  0  0
   11.0258  -26.2240  -13.8361 H   0  0  0  0  0  0  0  0  0  0  0  0
    8.6199  -25.2162  -13.3866 H   0  0  0  0  0  0  0  0  0  0  0  0
    4.5924  -28.6884   -6.8619 H   0  0  0  0  0  0  0  0  0  0  0  0
    6.2666  -28.2049   -6.6029 H   0  0  0  0  0  0  0  0  0  0  0  0
    6.1636  -30.6118   -7.0495 H   0  0  0  0  0  0  0  0  0  0  0  0
    5.2577  -30.3463   -8.5366 H   0  0  0  0  0  0  0  0  0  0  0  0
    4.6249  -27.8304   -9.1535 H   0  0  0  0  0  0  0  0  0  0  0  0
    5.1536  -26.5670   -8.0534 H   0  0  0  0  0  0  0  0  0  0  0  0
    8.1885  -28.6311  -10.2993 H   0  0  0  0  0  0  0  0  0  0  0  0
    6.5219  -29.1199  -10.5571 H   0  0  0  0  0  0  0  0  0  0  0  0
    8.1322  -29.4535   -7.9758 H   0  0  0  0  0  0  0  0  0  0  0  0
    7.5273  -27.0060   -8.5672 H   0  0  0  0  0  0  0  0  0  0  0  0
    7.0230  -31.5125   -9.9252 H   0  0  0  0  0  0  0  0  0  0  0  0
    7.8935  -31.8627   -8.4196 H   0  0  0  0  0  0  0  0  0  0  0  0
    8.7263  -31.0457   -9.7563 H   0  0  0  0  0  0  0  0  0  0  0  0
    6.2456  -26.8469  -11.2189 H   0  0  0  0  0  0  0  0  0  0  0  0
  1  2  1  0  0  0  0
  1  3  2  0  0  0  0
  2  4  2  0  0  0  0
  3  5  1  0  0  0  0
  3 18  1  0  0  0  0
  4 18  1  0  0  0  0
  4 19  1  0  0  0  0
  5 14  1  0  0  0  0
  5 15  2  0  0  0  0
  6  7  1  0  0  0  0
  6  8  1  0  0  0  0
  7 10  1  0  0  0  0
  8 11  1  0  0  0  0
  9 10  1  0  0  0  0
  9 11  1  0  0  0  0
 10 12  1  0  0  0  0
 11 13  1  0  0  0  0
 13 19  1  0  0  0  0
 16 19  2  0  0  0  0
 17 19  2  0  0  0  0
  1 20  1  0  0  0  0
  2 21  1  0  0  0  0
  6 22  1  0  0  0  0
  6 23  1  0  0  0  0
  7 24  1  0  0  0  0
  7 25  1  0  0  0  0
  8 26  1  0  0  0  0
  8 27  1  0  0  0  0
  9 28  1  0  0  0  0
  9 29  1  0  0  0  0
 10 30  1  0  0  0  0
 11 31  1  0  0  0  0
 12 32  1  0  0  0  0
 12 33  1  0  0  0  0
 12 34  1  0  0  0  0
 13 35  1  0  0  0  0
M  CHG  1  14  -1
M  END
> <Hybrid2>
-3.4826529026031494

> <Hybrid2>
-3.482653

$$$$
C38058656
  -OEChem-02152218503D

 35 36  0     1  0  0  0  0  0999 V2000
   11.5618  -26.5148  -10.2741 C   0  0  0  0  0  0  0  0  0  0  0  0
   10.5774  -25.9313   -9.4252 C   0  0  0  0  0  0  0  0  0  0  0  0
   11.1577  -26.5448  -11.5907 C   0  0  0  0  0  0  0  0  0  0  0  0
    9.4583  -25.5373  -10.1255 C   0  0  0  0  0  0  0  0  0  0  0  0
   11.9995  -27.1114  -12.7383 C   0  0  0  0  0  0  0  0  0  0  0  0
    5.8900  -28.8240   -7.4622 C   0  0  0  0  0  0  0  0  0  0  0  0
    6.1131  -29.9977   -8.4126 C   0  0  0  0  0  0  0  0  0  0  0  0
    5.7707  -27.5037   -8.2173 C   0  0  0  0  0  0  0  0  0  0  0  0
    7.2032  -28.4403  -10.0784 C   0  0  0  0  0  0  0  0  0  0  0  0
    7.3293  -29.7687   -9.3197 C   0  0  2  0  0  0  0  0  0  0  0  0
    6.9794  -27.2635   -9.1244 C   0  0  1  0  0  0  0  0  0  0  0  0
    7.5015  -30.9323  -10.2943 C   0  0  0  0  0  0  0  0  0  0  0  0
    6.8254  -26.0346   -9.8651 N   0  0  0  0  0  0  0  0  0  0  0  0
   11.4837  -27.0641  -13.8871 O   0  5  0  0  0  0  0  0  0  0  0  0
   13.1302  -27.5730  -12.4283 O   0  0  0  0  0  0  0  0  0  0  0  0
    8.0277  -24.4445   -8.2362 O   0  0  0  0  0  0  0  0  0  0  0  0
    7.6638  -23.7324  -10.6205 O   0  0  0  0  0  0  0  0  0  0  0  0
    9.5972  -25.8713  -11.7992 S   0  0  0  0  0  0  0  0  0  0  0  0
    7.9389  -24.7713   -9.6466 S   0  0  0  0  0  0  0  0  0  0  0  0
   12.5168  -26.8917   -9.9302 H   0  0  0  0  0  0  0  0  0  0  0  0
   10.6863  -25.8076   -8.3555 H   0  0  0  0  0  0  0  0  0  0  0  0
    4.9819  -28.9952   -6.8732 H   0  0  0  0  0  0  0  0  0  0  0  0
    6.7243  -28.7647   -6.7525 H   0  0  0  0  0  0  0  0  0  0  0  0
    6.2500  -30.9148   -7.8273 H   0  0  0  0  0  0  0  0  0  0  0  0
    5.2130  -30.1431   -9.0238 H   0  0  0  0  0  0  0  0  0  0  0  0
    4.8485  -27.5098   -8.8134 H   0  0  0  0  0  0  0  0  0  0  0  0
    5.6698  -26.6786   -7.5017 H   0  0  0  0  0  0  0  0  0  0  0  0
    8.1084  -28.2631  -10.6732 H   0  0  0  0  0  0  0  0  0  0  0  0
    6.3728  -28.4997  -10.7953 H   0  0  0  0  0  0  0  0  0  0  0  0
    8.2271  -29.7217   -8.6892 H   0  0  0  0  0  0  0  0  0  0  0  0
    7.8841  -27.1636   -8.4779 H   0  0  0  0  0  0  0  0  0  0  0  0
    6.6260  -31.0078  -10.9369 H   0  0  0  0  0  0  0  0  0  0  0  0
    7.6193  -31.8624   -9.7410 H   0  0  0  0  0  0  0  0  0  0  0  0
    8.3839  -30.7694  -10.9109 H   0  0  0  0  0  0  0  0  0  0  0  0
    6.3215  -26.1172  -10.7500 H   0  0  0  0  0  0  0  0  0  0  0  0
  1  2  1  0  0  0  0
  1  3  2  0  0  0  0
  2  4  2  0  0  0  0
  3  5  1  0  0  0  0
  3 18  1  0  0  0  0
  4 18  1  0  0  0  0
  4 19  1  0  0  0  0
  5 14  1  0  0  0  0
  5 15  2  0  0  0  0
  6  7  1  0  0  0  0
  6  8  1  0  0  0  0
  7 10  1  0  0  0  0
  8 11  1  0  0  0  0
  9 10  1  0  0  0  0
  9 11  1  0  0  0  0
 10 12  1  0  0  0  0
 11 13  1  0  0  0  0
 13 19  1  0  0  0  0
 16 19  2  0  0  0  0
 17 19  2  0  0  0  0
  1 20  1  0  0  0  0
  2 21  1  0  0  0  0
  6 22  1  0  0  0  0
  6 23  1  0  0  0  0
  7 24  1  0  0  0  0
  7 25  1  0  0  0  0
  8 26  1  0  0  0  0
  8 27  1  0  0  0  0
  9 28  1  0  0  0  0
  9 29  1  0  0  0  0
 10 30  1  0  0  0  0
 11 31  1  0  0  0  0
 12 32  1  0  0  0  0
 12 33  1  0  0  0  0
 12 34  1  0  0  0  0
 13 35  1  0  0  0  0
M  CHG  1  14  -1
M  END
> <Hybrid2>
-3.4826529026031494

> <Hybrid2>
-3.482582

$$$$
C38137293
  -OEChem-02152218503D

 35 36  0     0  0  0  0  0  0999 V2000
    7.9389  -28.1630   -9.5933 C   0  0  0  0  0  0  0  0  0  0  0  0
    5.9164  -26.6048   -8.4688 C   0  0  0  0  0  0  0  0  0  0  0  0
    6.9311  -28.7657   -8.8405 C   0  0  0  0  0  0  0  0  0  0  0  0
    7.9355  -26.7811   -9.7837 C   0  0  0  0  0  0  0  0  0  0  0  0
    5.9198  -27.9866   -8.2783 C   0  0  0  0  0  0  0  0  0  0  0  0
    6.9242  -26.0021   -9.2215 C   0  0  0  0  0  0  0  0  0  0  0  0
    6.9366  -30.2244   -8.6422 C   0  0  0  0  0  0  0  0  0  0  0  0
   13.6646  -26.3976  -13.2404 C   0  0  0  0  0  0  0  0  0  0  0  0
   12.1968  -26.2661  -13.6366 C   0  0  0  0  0  0  0  0  0  0  0  0
   13.8397  -27.3003  -12.0225 C   0  0  0  0  0  0  0  0  0  0  0  0
   11.3371  -25.7995  -12.4648 C   0  0  0  0  0  0  0  0  0  0  0  0
   12.9820  -26.8346  -10.8489 C   0  0  0  0  0  0  0  0  0  0  0  0
   11.5114  -26.7048  -11.2453 C   0  0  0  0  0  0  0  0  0  0  0  0
    8.9766  -26.1618  -10.5600 N   0  0  0  0  0  0  0  0  0  0  0  0
    7.8825  -30.9182   -9.1733 O   0  5  0  0  0  0  0  0  0  0  0  0
    5.9951  -30.7583   -7.9444 O   0  0  0  0  0  0  0  0  0  0  0  0
   10.9093  -24.7030   -9.7006 O   0  0  0  0  0  0  0  0  0  0  0  0
   10.6888  -27.0398   -8.7862 O   0  0  0  0  0  0  0  0  0  0  0  0
    4.9465  -28.5554   -7.5532 F   0  0  0  0  0  0  0  0  0  0  0  0
    6.9113  -24.6734   -9.3985 F   0  0  0  0  0  0  0  0  0  0  0  0
   10.5536  -26.0992   -9.8822 S   0  0  0  0  0  0  0  0  0  0  0  0
    8.7277  -28.7705  -10.0319 H   0  0  0  0  0  0  0  0  0  0  0  0
    5.1291  -25.9983   -8.0308 H   0  0  0  0  0  0  0  0  0  0  0  0
   14.2333  -26.8082  -14.0829 H   0  0  0  0  0  0  0  0  0  0  0  0
   14.0790  -25.4065  -13.0275 H   0  0  0  0  0  0  0  0  0  0  0  0
   12.1049  -25.5632  -14.4722 H   0  0  0  0  0  0  0  0  0  0  0  0
   11.8282  -27.2328  -13.9977 H   0  0  0  0  0  0  0  0  0  0  0  0
   13.5690  -28.3279  -12.2889 H   0  0  0  0  0  0  0  0  0  0  0  0
   14.8954  -27.3194  -11.7298 H   0  0  0  0  0  0  0  0  0  0  0  0
   11.5853  -24.7676  -12.2181 H   0  0  0  0  0  0  0  0  0  0  0  0
   10.2898  -25.8220  -12.7711 H   0  0  0  0  0  0  0  0  0  0  0  0
   13.0649  -27.5685  -10.0454 H   0  0  0  0  0  0  0  0  0  0  0  0
   13.3650  -25.8877  -10.4698 H   0  0  0  0  0  0  0  0  0  0  0  0
   11.1031  -27.6817  -11.4552 H   0  0  0  0  0  0  0  0  0  0  0  0
    8.6752  -25.3077  -11.0485 H   0  0  0  0  0  0  0  0  0  0  0  0
  1  3  1  0  0  0  0
  1  4  2  0  0  0  0
  2  5  1  0  0  0  0
  2  6  2  0  0  0  0
  3  5  2  0  0  0  0
  3  7  1  0  0  0  0
  4  6  1  0  0  0  0
  4 14  1  0  0  0  0
  5 19  1  0  0  0  0
  6 20  1  0  0  0  0
  7 15  1  0  0  0  0
  7 16  2  0  0  0  0
  8  9  1  0  0  0  0
  8 10  1  0  0  0  0
  9 11  1  0  0  0  0
 10 12  1  0  0  0  0
 11 13  1  0  0  0  0
 12 13  1  0  0  0  0
 13 21  1  0  0  0  0
 14 21  1  0  0  0  0
 17 21  2  0  0  0  0
 18 21  2  0  0  0  0
  1 22  1  0  0  0  0
  2 23  1  0  0  0  0
  8 24  1  0  0  0  0
  8 25  1  0  0  0  0
  9 26  1  0  0  0  0
  9 27  1  0  0  0  0
 10 28  1  0  0  0  0
 10 29  1  0  0  0  0
 11 30  1  0  0  0  0
 11 31  1  0  0  0  0
 12 32  1  0  0  0  0
 12 33  1  0  0  0  0
 13 34  1  0  0  0  0
 14 35  1  0  0  0  0
M  CHG  1  15  -1
M  END
> <Hybrid2>
-5.242995738983154

> <Hybrid2>
-5.242996

$$$$
C38137293
  -OEChem-02152218503D

 35 36  0     0  0  0  0  0  0999 V2000
    8.1265  -27.9309  -10.0725 C   0  0  0  0  0  0  0  0  0  0  0  0
    5.8979  -26.8493   -8.7894 C   0  0  0  0  0  0  0  0  0  0  0  0
    7.2236  -28.7688   -9.4181 C   0  0  0  0  0  0  0  0  0  0  0  0
    7.9153  -26.5522  -10.0852 C   0  0  0  0  0  0  0  0  0  0  0  0
    6.1093  -28.2280   -8.7766 C   0  0  0  0  0  0  0  0  0  0  0  0
    6.8010  -26.0114   -9.4437 C   0  0  0  0  0  0  0  0  0  0  0  0
    7.4486  -30.2236   -9.4073 C   0  0  0  0  0  0  0  0  0  0  0  0
   13.5246  -27.2733  -12.8976 C   0  0  0  0  0  0  0  0  0  0  0  0
   13.8216  -25.9106  -12.2783 C   0  0  0  0  0  0  0  0  0  0  0  0
   12.0526  -27.4100  -13.2765 C   0  0  0  0  0  0  0  0  0  0  0  0
   12.9078  -25.6208  -11.0906 C   0  0  0  0  0  0  0  0  0  0  0  0
   11.1370  -27.1222  -12.0896 C   0  0  0  0  0  0  0  0  0  0  0  0
   11.4333  -25.7563  -11.4706 C   0  0  0  0  0  0  0  0  0  0  0  0
    8.8485  -25.6900  -10.7603 N   0  0  0  0  0  0  0  0  0  0  0  0
    8.4857  -30.6946  -10.0081 O   0  5  0  0  0  0  0  0  0  0  0  0
    6.6007  -30.9771   -8.7977 O   0  0  0  0  0  0  0  0  0  0  0  0
   10.5442  -24.0817   -9.6926 O   0  0  0  0  0  0  0  0  0  0  0  0
   10.6803  -26.5230   -9.0870 O   0  0  0  0  0  0  0  0  0  0  0  0
    5.2352  -29.0240   -8.1449 F   0  0  0  0  0  0  0  0  0  0  0  0
    6.5882  -24.6879   -9.4502 F   0  0  0  0  0  0  0  0  0  0  0  0
   10.4012  -25.4803  -10.0561 S   0  0  0  0  0  0  0  0  0  0  0  0
    8.9958  -28.3526  -10.5729 H   0  0  0  0  0  0  0  0  0  0  0  0
    5.0304  -26.4283   -8.2898 H   0  0  0  0  0  0  0  0  0  0  0  0
   14.1449  -27.4097  -13.7912 H   0  0  0  0  0  0  0  0  0  0  0  0
   13.7993  -28.0658  -12.1935 H   0  0  0  0  0  0  0  0  0  0  0  0
   14.8702  -25.8729  -11.9626 H   0  0  0  0  0  0  0  0  0  0  0  0
   13.6939  -25.1296  -13.0363 H   0  0  0  0  0  0  0  0  0  0  0  0
   11.8211  -26.7183  -14.0938 H   0  0  0  0  0  0  0  0  0  0  0  0
   11.8650  -28.4201  -13.6572 H   0  0  0  0  0  0  0  0  0  0  0  0
   13.1571  -26.2890  -10.2667 H   0  0  0  0  0  0  0  0  0  0  0  0
   13.0902  -24.5992  -10.7525 H   0  0  0  0  0  0  0  0  0  0  0  0
   10.1029  -27.1320  -12.4383 H   0  0  0  0  0  0  0  0  0  0  0  0
   11.2410  -27.9134  -11.3478 H   0  0  0  0  0  0  0  0  0  0  0  0
   11.1625  -24.9753  -12.1647 H   0  0  0  0  0  0  0  0  0  0  0  0
    8.4206  -24.8349  -11.1405 H   0  0  0  0  0  0  0  0  0  0  0  0
  1  3  1  0  0  0  0
  1  4  2  0  0  0  0
  2  5  1  0  0  0  0
  2  6  2  0  0  0  0
  3  5  2  0  0  0  0
  3  7  1  0  0  0  0
  4  6  1  0  0  0  0
  4 14  1  0  0  0  0
  5 19  1  0  0  0  0
  6 20  1  0  0  0  0
  7 15  1  0  0  0  0
  7 16  2  0  0  0  0
  8  9  1  0  0  0  0
  8 10  1  0  0  0  0
  9 11  1  0  0  0  0
 10 12  1  0  0  0  0
 11 13  1  0  0  0  0
 12 13  1  0  0  0  0
 13 21  1  0  0  0  0
 14 21  1  0  0  0  0
 17 21  2  0  0  0  0
 18 21  2  0  0  0  0
  1 22  1  0  0  0  0
  2 23  1  0  0  0  0
  8 24  1  0  0  0  0
  8 25  1  0  0  0  0
  9 26  1  0  0  0  0
  9 27  1  0  0  0  0
 10 28  1  0  0  0  0
 10 29  1  0  0  0  0
 11 30  1  0  0  0  0
 11 31  1  0  0  0  0
 12 32  1  0  0  0  0
 12 33  1  0  0  0  0
 13 34  1  0  0  0  0
 14 35  1  0  0  0  0
M  CHG  1  15  -1
M  END
> <Hybrid2>
-5.242995738983154

> <Hybrid2>
-4.428652

$$$$
C37858708
  -OEChem-02152218503D

 34 36  0     0  0  0  0  0  0999 V2000
   14.9868  -28.1502  -11.0024 C   0  0  0  0  0  0  0  0  0  0  0  0
   15.2878  -27.6727   -9.7283 C   0  0  0  0  0  0  0  0  0  0  0  0
   13.7190  -27.9512  -11.5609 C   0  0  0  0  0  0  0  0  0  0  0  0
   14.3348  -26.9829   -8.9734 C   0  0  0  0  0  0  0  0  0  0  0  0
   11.3907  -26.8856  -11.0633 C   0  0  0  0  0  0  0  0  0  0  0  0
   12.7419  -27.2587  -10.8185 C   0  0  0  0  0  0  0  0  0  0  0  0
   13.0717  -26.7915   -9.5444 C   0  0  0  0  0  0  0  0  0  0  0  0
   10.9347  -26.2119   -9.9537 C   0  0  0  0  0  0  0  0  0  0  0  0
    8.5252  -26.2606   -9.4985 C   0  0  0  0  0  0  0  0  0  0  0  0
    7.2074  -25.6364   -9.1346 C   0  0  0  0  0  0  0  0  0  0  0  0
    8.5650  -27.7321   -9.7655 C   0  0  0  0  0  0  0  0  0  0  0  0
    6.1109  -27.7043   -9.2826 C   0  0  0  0  0  0  0  0  0  0  0  0
    6.6037  -31.3546   -8.0180 C   0  0  0  0  0  0  0  0  0  0  0  0
    9.7111  -25.6152   -9.6127 C   0  0  0  0  0  0  0  0  0  0  0  0
    7.4922  -30.5342   -8.5900 C   0  0  0  0  0  0  0  0  0  0  0  0
    7.2558  -29.8193   -9.8798 C   0  0  0  0  0  0  0  0  0  0  0  0
    6.1281  -26.3458   -9.0490 N   0  0  0  0  0  0  0  0  0  0  0  0
   11.9558  -26.1600   -9.0431 N   0  0  0  0  0  0  0  0  0  0  0  0
    7.3165  -28.3707   -9.6353 N   0  0  0  0  0  0  0  0  0  0  0  0
    7.3340  -24.4137   -8.9464 O   0  5  0  0  0  0  0  0  0  0  0  0
    9.6134  -28.2998  -10.0689 O   0  0  0  0  0  0  0  0  0  0  0  0
    4.6110  -28.5025   -9.1280 S   0  0  0  0  0  0  0  0  0  0  0  0
   15.7447  -28.6835  -11.5700 H   0  0  0  0  0  0  0  0  0  0  0  0
   16.2792  -27.8383   -9.3146 H   0  0  0  0  0  0  0  0  0  0  0  0
   13.4981  -28.3289  -12.5551 H   0  0  0  0  0  0  0  0  0  0  0  0
   14.5691  -26.6107   -7.9817 H   0  0  0  0  0  0  0  0  0  0  0  0
   10.8175  -27.0899  -11.9581 H   0  0  0  0  0  0  0  0  0  0  0  0
    6.8324  -31.8401   -7.0755 H   0  0  0  0  0  0  0  0  0  0  0  0
    5.6409  -31.5562   -8.4747 H   0  0  0  0  0  0  0  0  0  0  0  0
    9.6802  -24.5373   -9.3863 H   0  0  0  0  0  0  0  0  0  0  0  0
    8.4401  -30.3622   -8.0861 H   0  0  0  0  0  0  0  0  0  0  0  0
    6.2637  -30.0715  -10.2666 H   0  0  0  0  0  0  0  0  0  0  0  0
    7.9969  -30.0794  -10.6423 H   0  0  0  0  0  0  0  0  0  0  0  0
   11.9075  -25.7234   -8.1322 H   0  0  0  0  0  0  0  0  0  0  0  0
  1  2  1  0  0  0  0
  1  3  2  0  0  0  0
  2  4  2  0  0  0  0
  3  6  1  0  0  0  0
  4  7  1  0  0  0  0
  5  6  1  0  0  0  0
  5  8  2  0  0  0  0
  6  7  2  0  0  0  0
  7 18  1  0  0  0  0
  8 14  1  0  0  0  0
  8 18  1  0  0  0  0
  9 10  1  0  0  0  0
  9 11  1  0  0  0  0
  9 14  2  0  0  0  0
 10 17  2  0  0  0  0
 10 20  1  0  0  0  0
 11 19  1  0  0  0  0
 11 21  2  0  0  0  0
 12 17  1  0  0  0  0
 12 19  1  0  0  0  0
 12 22  2  0  0  0  0
 13 15  2  0  0  0  0
 15 16  1  0  0  0  0
 16 19  1  0  0  0  0
  1 23  1  0  0  0  0
  2 24  1  0  0  0  0
  3 25  1  0  0  0  0
  4 26  1  0  0  0  0
  5 27  1  0  0  0  0
 13 28  1  0  0  0  0
 13 29  1  0  0  0  0
 14 30  1  0  0  0  0
 15 31  1  0  0  0  0
 16 32  1  0  0  0  0
 16 33  1  0  0  0  0
 18 34  1  0  0  0  0
M  CHG  1  20  -1
M  END
> <Hybrid2>
-5.640530109405518

> <Hybrid2>
-5.640530

$$$$
C37858708
  -OEChem-02152218503D

 34 36  0     0  0  0  0  0  0999 V2000
   14.6400  -27.9843  -10.6055 C   0  0  0  0  0  0  0  0  0  0  0  0
   14.5297  -27.1533  -11.7186 C   0  0  0  0  0  0  0  0  0  0  0  0
   13.5848  -28.1045   -9.6939 C   0  0  0  0  0  0  0  0  0  0  0  0
   13.3651  -26.4177  -11.9563 C   0  0  0  0  0  0  0  0  0  0  0  0
   11.1655  -27.2542   -9.2163 C   0  0  0  0  0  0  0  0  0  0  0  0
   12.4008  -27.3725   -9.9126 C   0  0  0  0  0  0  0  0  0  0  0  0
   12.3184  -26.5477  -11.0365 C   0  0  0  0  0  0  0  0  0  0  0  0
   10.3720  -26.3759   -9.9177 C   0  0  0  0  0  0  0  0  0  0  0  0
    7.9476  -26.6188   -9.6373 C   0  0  0  0  0  0  0  0  0  0  0  0
    6.5530  -26.0960   -9.4357 C   0  0  0  0  0  0  0  0  0  0  0  0
    8.1428  -28.0978   -9.7502 C   0  0  0  0  0  0  0  0  0  0  0  0
    5.6649  -28.2666   -9.4532 C   0  0  0  0  0  0  0  0  0  0  0  0
    6.3815  -31.7156   -7.7927 C   0  0  0  0  0  0  0  0  0  0  0  0
    9.0753  -25.8733   -9.7293 C   0  0  0  0  0  0  0  0  0  0  0  0
    7.2359  -30.8691   -8.3784 C   0  0  0  0  0  0  0  0  0  0  0  0
    7.0426  -30.3052   -9.7478 C   0  0  0  0  0  0  0  0  0  0  0  0
    5.5393  -26.8971   -9.3578 N   0  0  0  0  0  0  0  0  0  0  0  0
   11.0759  -25.9554  -11.0141 N   0  0  0  0  0  0  0  0  0  0  0  0
    6.9510  -28.8412   -9.6476 N   0  0  0  0  0  0  0  0  0  0  0  0
    6.5520  -24.8546   -9.3636 O   0  5  0  0  0  0  0  0  0  0  0  0
    9.2599  -28.5854   -9.9171 O   0  0  0  0  0  0  0  0  0  0  0  0
    4.2362  -29.1907   -9.3286 S   0  0  0  0  0  0  0  0  0  0  0  0
   15.5557  -28.5464  -10.4424 H   0  0  0  0  0  0  0  0  0  0  0  0
   15.3617  -27.0757  -12.4137 H   0  0  0  0  0  0  0  0  0  0  0  0
   13.6845  -28.7560   -8.8305 H   0  0  0  0  0  0  0  0  0  0  0  0
   13.2788  -25.7711  -12.8230 H   0  0  0  0  0  0  0  0  0  0  0  0
   10.8908  -27.7605   -8.3002 H   0  0  0  0  0  0  0  0  0  0  0  0
    6.5750  -32.0856   -6.7917 H   0  0  0  0  0  0  0  0  0  0  0  0
    5.4820  -32.0531   -8.2957 H   0  0  0  0  0  0  0  0  0  0  0  0
    8.9280  -24.7873   -9.6162 H   0  0  0  0  0  0  0  0  0  0  0  0
    8.1195  -30.5580   -7.8266 H   0  0  0  0  0  0  0  0  0  0  0  0
    6.1127  -30.6892  -10.1786 H   0  0  0  0  0  0  0  0  0  0  0  0
    7.8646  -30.5615  -10.4238 H   0  0  0  0  0  0  0  0  0  0  0  0
   10.7407  -25.3047  -11.7119 H   0  0  0  0  0  0  0  0  0  0  0  0
  1  2  1  0  0  0  0
  1  3  2  0  0  0  0
  2  4  2  0  0  0  0
  3  6  1  0  0  0  0
  4  7  1  0  0  0  0
  5  6  1  0  0  0  0
  5  8  2  0  0  0  0
  6  7  2  0  0  0  0
  7 18  1  0  0  0  0
  8 14  1  0  0  0  0
  8 18  1  0  0  0  0
  9 10  1  0  0  0  0
  9 11  1  0  0  0  0
  9 14  2  0  0  0  0
 10 17  2  0  0  0  0
 10 20  1  0  0  0  0
 11 19  1  0  0  0  0
 11 21  2  0  0  0  0
 12 17  1  0  0  0  0
 12 19  1  0  0  0  0
 12 22  2  0  0  0  0
 13 15  2  0  0  0  0
 15 16  1  0  0  0  0
 16 19  1  0  0  0  0
  1 23  1  0  0  0  0
  2 24  1  0  0  0  0
  3 25  1  0  0  0  0
  4 26  1  0  0  0  0
  5 27  1  0  0  0  0
 13 28  1  0  0  0  0
 13 29  1  0  0  0  0
 14 30  1  0  0  0  0
 15 31  1  0  0  0  0
 16 32  1  0  0  0  0
 16 33  1  0  0  0  0
 18 34  1  0  0  0  0
M  CHG  1  20  -1
M  END
> <Hybrid2>
-5.640530109405518

> <Hybrid2>
-5.512333

$$$$
C39327399
  -OEChem-02152218503D

 31 34  0     0  0  0  0  0  0999 V2000
   13.7121  -26.4614  -12.5124 C   0  0  0  0  0  0  0  0  0  0  0  0
   14.1822  -25.1585  -12.3902 C   0  0  0  0  0  0  0  0  0  0  0  0
   12.4509  -26.7878  -12.0266 C   0  0  0  0  0  0  0  0  0  0  0  0
    9.4151  -25.0487  -10.8852 C   0  0  0  0  0  0  0  0  0  0  0  0
   13.3589  -24.2266  -11.7792 C   0  0  0  0  0  0  0  0  0  0  0  0
    7.9515  -26.6365   -9.9003 C   0  0  0  0  0  0  0  0  0  0  0  0
    8.1595  -25.3519  -10.3672 C   0  0  0  0  0  0  0  0  0  0  0  0
   11.7051  -25.7830  -11.4317 C   0  0  0  0  0  0  0  0  0  0  0  0
   10.3868  -26.0482  -10.9048 C   0  0  0  0  0  0  0  0  0  0  0  0
    8.9764  -27.5696   -9.9581 C   0  0  0  0  0  0  0  0  0  0  0  0
    6.7269  -27.1810   -9.3187 C   0  0  0  0  0  0  0  0  0  0  0  0
    6.9294  -28.6003   -8.9481 C   0  0  0  0  0  0  0  0  0  0  0  0
    5.8919  -29.2478   -8.3978 C   0  0  0  0  0  0  0  0  0  0  0  0
    4.5625  -27.1763   -8.5904 C   0  0  0  0  0  0  0  0  0  0  0  0
    7.1120  -24.2937  -10.3382 C   0  0  0  0  0  0  0  0  0  0  0  0
   12.1280  -24.5062  -11.2951 N   0  0  0  0  0  0  0  0  0  0  0  0
   10.2006  -27.3121  -10.4514 N   0  0  0  0  0  0  0  0  0  0  0  0
    5.6365  -26.5110   -9.1582 N   0  0  0  0  0  0  0  0  0  0  0  0
    4.7276  -28.5175   -8.2310 N   0  0  0  0  0  0  0  0  0  0  0  0
    5.7449  -30.4273   -7.9831 O   0  5  0  0  0  0  0  0  0  0  0  0
    3.4814  -26.6169   -8.3997 O   0  0  0  0  0  0  0  0  0  0  0  0
    7.5273  -23.0951  -10.8472 F   0  0  0  0  0  0  0  0  0  0  0  0
    5.9905  -24.6118  -11.0517 F   0  0  0  0  0  0  0  0  0  0  0  0
    6.6738  -24.0201   -9.0739 F   0  0  0  0  0  0  0  0  0  0  0  0
    8.5187  -29.1678   -9.3089 S   0  0  0  0  0  0  0  0  0  0  0  0
   14.3279  -27.2212  -12.9841 H   0  0  0  0  0  0  0  0  0  0  0  0
   15.1631  -24.8817  -12.7591 H   0  0  0  0  0  0  0  0  0  0  0  0
   12.0757  -27.8020  -12.1190 H   0  0  0  0  0  0  0  0  0  0  0  0
    9.6295  -24.0535  -11.2651 H   0  0  0  0  0  0  0  0  0  0  0  0
   13.6781  -23.1965  -11.6591 H   0  0  0  0  0  0  0  0  0  0  0  0
    3.9315  -28.9928   -7.8153 H   0  0  0  0  0  0  0  0  0  0  0  0
  1  2  1  0  0  0  0
  1  3  2  0  0  0  0
  2  5  2  0  0  0  0
  3  8  1  0  0  0  0
  4  7  2  0  0  0  0
  4  9  1  0  0  0  0
  5 16  1  0  0  0  0
  6  7  1  0  0  0  0
  6 10  2  0  0  0  0
  6 11  1  0  0  0  0
  7 15  1  0  0  0  0
  8  9  1  0  0  0  0
  8 16  2  0  0  0  0
  9 17  2  0  0  0  0
 10 17  1  0  0  0  0
 10 25  1  0  0  0  0
 11 12  1  0  0  0  0
 11 18  2  0  0  0  0
 12 13  2  0  0  0  0
 12 25  1  0  0  0  0
 13 19  1  0  0  0  0
 13 20  1  0  0  0  0
 14 18  1  0  0  0  0
 14 19  1  0  0  0  0
 14 21  2  0  0  0  0
 15 22  1  0  0  0  0
 15 23  1  0  0  0  0
 15 24  1  0  0  0  0
  1 26  1  0  0  0  0
  2 27  1  0  0  0  0
  3 28  1  0  0  0  0
  4 29  1  0  0  0  0
  5 30  1  0  0  0  0
 19 31  1  0  0  0  0
M  CHG  1  20  -1
M  END
> <Hybrid2>
-3.477057456970215

> <Hybrid2>
-3.477057

$$$$
C39327399
  -OEChem-02152218503D

 31 34  0     0  0  0  0  0  0999 V2000
   13.7121  -26.9614  -12.5124 C   0  0  0  0  0  0  0  0  0  0  0  0
   14.1822  -25.6585  -12.3902 C   0  0  0  0  0  0  0  0  0  0  0  0
   12.4509  -27.2878  -12.0266 C   0  0  0  0  0  0  0  0  0  0  0  0
    9.4151  -25.5487  -10.8852 C   0  0  0  0  0  0  0  0  0  0  0  0
   13.3589  -24.7266  -11.7792 C   0  0  0  0  0  0  0  0  0  0  0  0
    7.9515  -27.1365   -9.9003 C   0  0  0  0  0  0  0  0  0  0  0  0
    8.1595  -25.8519  -10.3672 C   0  0  0  0  0  0  0  0  0  0  0  0
   11.7051  -26.2830  -11.4317 C   0  0  0  0  0  0  0  0  0  0  0  0
   10.3868  -26.5482  -10.9048 C   0  0  0  0  0  0  0  0  0  0  0  0
    8.9764  -28.0696   -9.9581 C   0  0  0  0  0  0  0  0  0  0  0  0
    6.7269  -27.6810   -9.3187 C   0  0  0  0  0  0  0  0  0  0  0  0
    6.9294  -29.1003   -8.9481 C   0  0  0  0  0  0  0  0  0  0  0  0
    5.8919  -29.7478   -8.3978 C   0  0  0  0  0  0  0  0  0  0  0  0
    4.5625  -27.6763   -8.5904 C   0  0  0  0  0  0  0  0  0  0  0  0
    7.1120  -24.7937  -10.3382 C   0  0  0  0  0  0  0  0  0  0  0  0
   12.1280  -25.0062  -11.2951 N   0  0  0  0  0  0  0  0  0  0  0  0
   10.2006  -27.8121  -10.4514 N   0  0  0  0  0  0  0  0  0  0  0  0
    5.6365  -27.0110   -9.1582 N   0  0  0  0  0  0  0  0  0  0  0  0
    4.7276  -29.0175   -8.2310 N   0  0  0  0  0  0  0  0  0  0  0  0
    5.7449  -30.9273   -7.9831 O   0  5  0  0  0  0  0  0  0  0  0  0
    3.4814  -27.1169   -8.3997 O   0  0  0  0  0  0  0  0  0  0  0  0
    7.5273  -23.5951  -10.8472 F   0  0  0  0  0  0  0  0  0  0  0  0
    5.9905  -25.1118  -11.0517 F   0  0  0  0  0  0  0  0  0  0  0  0
    6.6738  -24.5201   -9.0739 F   0  0  0  0  0  0  0  0  0  0  0  0
    8.5187  -29.6678   -9.3089 S   0  0  0  0  0  0  0  0  0  0  0  0
   14.3279  -27.7212  -12.9841 H   0  0  0  0  0  0  0  0  0  0  0  0
   15.1631  -25.3817  -12.7591 H   0  0  0  0  0  0  0  0  0  0  0  0
   12.0757  -28.3020  -12.1190 H   0  0  0  0  0  0  0  0  0  0  0  0
    9.6295  -24.5535  -11.2651 H   0  0  0  0  0  0  0  0  0  0  0  0
   13.6781  -23.6965  -11.6591 H   0  0  0  0  0  0  0  0  0  0  0  0
    3.9315  -29.4928   -7.8153 H   0  0  0  0  0  0  0  0  0  0  0  0
  1  2  1  0  0  0  0
  1  3  2  0  0  0  0
  2  5  2  0  0  0  0
  3  8  1  0  0  0  0
  4  7  2  0  0  0  0
  4  9  1  0  0  0  0
  5 16  1  0  0  0  0
  6  7  1  0  0  0  0
  6 10  2  0  0  0  0
  6 11  1  0  0  0  0
  7 15  1  0  0  0  0
  8  9  1  0  0  0  0
  8 16  2  0  0  0  0
  9 17  2  0  0  0  0
 10 17  1  0  0  0  0
 10 25  1  0  0  0  0
 11 12  1  0  0  0  0
 11 18  2  0  0  0  0
 12 13  2  0  0  0  0
 12 25  1  0  0  0  0
 13 19  1  0  0  0  0
 13 20  1  0  0  0  0
 14 18  1  0  0  0  0
 14 19  1  0  0  0  0
 14 21  2  0  0  0  0
 15 22  1  0  0  0  0
 15 23  1  0  0  0  0
 15 24  1  0  0  0  0
  1 26  1  0  0  0  0
  2 27  1  0  0  0  0
  3 28  1  0  0  0  0
  4 29  1  0  0  0  0
  5 30  1  0  0  0  0
 19 31  1  0  0  0  0
M  CHG  1  20  -1
M  END
> <Hybrid2>
-3.477057456970215

> <Hybrid2>
-3.336007

$$$$
C39457915
  -OEChem-02152218503D

 43 46  0     0  0  0  0  0  0999 V2000
   13.5454  -27.5840  -10.4654 C   0  0  0  0  0  0  0  0  0  0  0  0
   14.0511  -27.4463  -11.7580 C   0  0  0  0  0  0  0  0  0  0  0  0
   12.2867  -27.0718  -10.1507 C   0  0  0  0  0  0  0  0  0  0  0  0
   13.2982  -26.7964  -12.7359 C   0  0  0  0  0  0  0  0  0  0  0  0
   10.0547  -24.5269  -10.9404 C   0  0  0  0  0  0  0  0  0  0  0  0
    8.8074  -24.0024  -10.6739 C   0  0  0  0  0  0  0  0  0  0  0  0
   11.5338  -26.4219  -11.1286 C   0  0  0  0  0  0  0  0  0  0  0  0
   10.2243  -25.8951  -10.7800 C   0  0  0  0  0  0  0  0  0  0  0  0
    9.1542  -26.6943  -10.3575 C   0  0  0  0  0  0  0  0  0  0  0  0
    6.4025  -28.1201   -9.4588 C   0  0  0  0  0  0  0  0  0  0  0  0
   12.0395  -26.2842  -12.4213 C   0  0  0  0  0  0  0  0  0  0  0  0
    4.9649  -28.2263   -9.1381 C   0  0  0  0  0  0  0  0  0  0  0  0
    7.9225  -26.0823  -10.1216 C   0  0  0  0  0  0  0  0  0  0  0  0
    6.6767  -26.7638   -9.7392 C   0  0  0  0  0  0  0  0  0  0  0  0
    4.4069  -26.9536   -9.2240 C   0  0  0  0  0  0  0  0  0  0  0  0
    9.4265  -28.1413  -10.2024 C   0  0  0  0  0  0  0  0  0  0  0  0
    7.3426  -29.2760   -9.4681 C   0  0  0  0  0  0  0  0  0  0  0  0
    8.7545  -28.8853   -9.0760 C   0  0  0  0  0  0  0  0  0  0  0  0
    3.0039  -26.5331   -8.9890 C   0  0  0  0  0  0  0  0  0  0  0  0
    3.5832  -30.2629  -10.3448 C   0  0  0  0  0  0  0  0  0  0  0  0
    7.7495  -24.7421  -10.2751 N   0  0  0  0  0  0  0  0  0  0  0  0
    5.4296  -26.0003   -9.5953 N   0  0  0  0  0  0  0  0  0  0  0  0
    5.2330  -24.7761   -9.7403 O   0  5  0  0  0  0  0  0  0  0  0  0
   10.2001  -28.7019  -10.9746 O   0  0  0  0  0  0  0  0  0  0  0  0
   11.3260  -25.6521  -13.3964 O   0  0  0  0  0  0  0  0  0  0  0  0
    4.1086  -29.6901   -8.7081 S   0  0  0  0  0  0  0  0  0  0  0  0
   14.1317  -28.0902   -9.7041 H   0  0  0  0  0  0  0  0  0  0  0  0
   15.0312  -27.8451  -12.0029 H   0  0  0  0  0  0  0  0  0  0  0  0
   11.9072  -27.1873   -9.1381 H   0  0  0  0  0  0  0  0  0  0  0  0
   13.6988  -26.6929  -13.7408 H   0  0  0  0  0  0  0  0  0  0  0  0
   10.8592  -23.8780  -11.2718 H   0  0  0  0  0  0  0  0  0  0  0  0
    8.6156  -22.9394  -10.7745 H   0  0  0  0  0  0  0  0  0  0  0  0
    6.9553  -30.0536   -8.7980 H   0  0  0  0  0  0  0  0  0  0  0  0
    7.3897  -29.7110  -10.4727 H   0  0  0  0  0  0  0  0  0  0  0  0
    9.3646  -29.7489   -8.7854 H   0  0  0  0  0  0  0  0  0  0  0  0
    8.7322  -28.2159   -8.2073 H   0  0  0  0  0  0  0  0  0  0  0  0
    2.8496  -26.2615   -7.9346 H   0  0  0  0  0  0  0  0  0  0  0  0
    2.7304  -25.6654   -9.6085 H   0  0  0  0  0  0  0  0  0  0  0  0
    2.2919  -27.3332   -9.2431 H   0  0  0  0  0  0  0  0  0  0  0  0
    3.0196  -31.1942  -10.2495 H   0  0  0  0  0  0  0  0  0  0  0  0
    4.4585  -30.4390  -10.9750 H   0  0  0  0  0  0  0  0  0  0  0  0
    2.9492  -29.5081  -10.8164 H   0  0  0  0  0  0  0  0  0  0  0  0
   11.8270  -25.6472  -14.2265 H   0  0  0  0  0  0  0  0  0  0  0  0
  1  2  1  0  0  0  0
  1  3  2  0  0  0  0
  2  4  2  0  0  0  0
  3  7  1  0  0  0  0
  4 11  1  0  0  0  0
  5  6  2  0  0  0  0
  5  8  1  0  0  0  0
  6 21  1  0  0  0  0
  7  8  1  0  0  0  0
  7 11  2  0  0  0  0
  8  9  2  0  0  0  0
  9 13  1  0  0  0  0
  9 16  1  0  0  0  0
 10 12  1  0  0  0  0
 10 14  2  0  0  0  0
 10 17  1  0  0  0  0
 11 25  1  0  0  0  0
 12 15  2  0  0  0  0
 12 26  1  0  0  0  0
 13 14  1  0  0  0  0
 13 21  2  0  0  0  0
 14 22  1  0  0  0  0
 15 19  1  0  0  0  0
 15 22  1  0  0  0  0
 16 18  1  0  0  0  0
 16 24  2  0  0  0  0
 17 18  1  0  0  0  0
 20 26  1  0  0  0  0
 22 23  1  0  0  0  0
  1 27  1  0  0  0  0
  2 28  1  0  0  0  0
  3 29  1  0  0  0  0
  4 30  1  0  0  0  0
  5 31  1  0  0  0  0
  6 32  1  0  0  0  0
 17 33  1  0  0  0  0
 17 34  1  0  0  0  0
 18 35  1  0  0  0  0
 18 36  1  0  0  0  0
 19 37  1  0  0  0  0
 19 38  1  0  0  0  0
 19 39  1  0  0  0  0
 20 40  1  0  0  0  0
 20 41  1  0  0  0  0
 20 42  1  0  0  0  0
 25 43  1  0  0  0  0
M  CHG  1  23  -1
M  END
> <Hybrid2>
-5.147181987762451

> <Hybrid2>
-5.147182

$$$$
C39457915
  -OEChem-02152218503D

 43 46  0     0  0  0  0  0  0999 V2000
   13.8933  -27.2579  -10.0009 C   0  0  0  0  0  0  0  0  0  0  0  0
   14.2185  -27.5257  -11.3306 C   0  0  0  0  0  0  0  0  0  0  0  0
   12.6063  -26.8343   -9.6694 C   0  0  0  0  0  0  0  0  0  0  0  0
   13.2568  -27.3698  -12.3288 C   0  0  0  0  0  0  0  0  0  0  0  0
   10.1000  -24.8637  -10.3002 C   0  0  0  0  0  0  0  0  0  0  0  0
    8.8311  -24.4112  -10.0050 C   0  0  0  0  0  0  0  0  0  0  0  0
   11.6446  -26.6784  -10.6676 C   0  0  0  0  0  0  0  0  0  0  0  0
   10.3092  -26.2358  -10.3010 C   0  0  0  0  0  0  0  0  0  0  0  0
    9.2536  -27.1109  -10.0136 C   0  0  0  0  0  0  0  0  0  0  0  0
    6.5676  -28.7073   -9.2079 C   0  0  0  0  0  0  0  0  0  0  0  0
   11.9698  -26.9461  -11.9973 C   0  0  0  0  0  0  0  0  0  0  0  0
    5.1718  -28.8860   -8.7605 C   0  0  0  0  0  0  0  0  0  0  0  0
    8.0044  -26.5666   -9.7129 C   0  0  0  0  0  0  0  0  0  0  0  0
    6.8038  -27.3199   -9.3211 C   0  0  0  0  0  0  0  0  0  0  0  0
    4.5976  -27.6254   -8.6193 C   0  0  0  0  0  0  0  0  0  0  0  0
    9.5629  -28.5585  -10.0471 C   0  0  0  0  0  0  0  0  0  0  0  0
    7.5087  -29.8314   -9.4740 C   0  0  0  0  0  0  0  0  0  0  0  0
    8.5123  -29.5088  -10.5640 C   0  0  0  0  0  0  0  0  0  0  0  0
    3.2217  -27.2703   -8.1937 C   0  0  0  0  0  0  0  0  0  0  0  0
    3.6894  -30.7753  -10.0819 C   0  0  0  0  0  0  0  0  0  0  0  0
    7.7916  -25.2233   -9.7124 N   0  0  0  0  0  0  0  0  0  0  0  0
    5.5702  -26.6095   -8.9570 N   0  0  0  0  0  0  0  0  0  0  0  0
    5.3496  -25.3814   -8.9180 O   0  5  0  0  0  0  0  0  0  0  0  0
   10.6637  -28.9554   -9.6733 O   0  0  0  0  0  0  0  0  0  0  0  0
   11.0501  -26.8006  -12.9936 O   0  0  0  0  0  0  0  0  0  0  0  0
    4.3761  -30.4119   -8.4450 S   0  0  0  0  0  0  0  0  0  0  0  0
   14.6422  -27.3796   -9.2238 H   0  0  0  0  0  0  0  0  0  0  0  0
   15.2206  -27.8554  -11.5886 H   0  0  0  0  0  0  0  0  0  0  0  0
   12.3691  -26.6295   -8.6280 H   0  0  0  0  0  0  0  0  0  0  0  0
   13.5176  -27.5802  -13.3626 H   0  0  0  0  0  0  0  0  0  0  0  0
   10.8906  -24.1567  -10.5303 H   0  0  0  0  0  0  0  0  0  0  0  0
    8.6053  -23.3503   -9.9930 H   0  0  0  0  0  0  0  0  0  0  0  0
    8.0213  -30.0934   -8.5401 H   0  0  0  0  0  0  0  0  0  0  0  0
    6.9502  -30.7181   -9.7943 H   0  0  0  0  0  0  0  0  0  0  0  0
    8.0400  -29.0884  -11.4598 H   0  0  0  0  0  0  0  0  0  0  0  0
    9.0259  -30.4232  -10.8852 H   0  0  0  0  0  0  0  0  0  0  0  0
    3.1713  -27.1449   -7.1023 H   0  0  0  0  0  0  0  0  0  0  0  0
    2.8806  -26.3339   -8.6609 H   0  0  0  0  0  0  0  0  0  0  0  0
    2.4944  -28.0446   -8.4823 H   0  0  0  0  0  0  0  0  0  0  0  0
    3.1461  -31.7231  -10.0550 H   0  0  0  0  0  0  0  0  0  0  0  0
    4.4965  -30.8479  -10.8151 H   0  0  0  0  0  0  0  0  0  0  0  0
    3.0042  -29.9789  -10.3821 H   0  0  0  0  0  0  0  0  0  0  0  0
   11.4462  -27.0270  -13.8492 H   0  0  0  0  0  0  0  0  0  0  0  0
  1  2  1  0  0  0  0
  1  3  2  0  0  0  0
  2  4  2  0  0  0  0
  3  7  1  0  0  0  0
  4 11  1  0  0  0  0
  5  6  2  0  0  0  0
  5  8  1  0  0  0  0
  6 21  1  0  0  0  0
  7  8  1  0  0  0  0
  7 11  2  0  0  0  0
  8  9  2  0  0  0  0
  9 13  1  0  0  0  0
  9 16  1  0  0  0  0
 10 12  1  0  0  0  0
 10 14  2  0  0  0  0
 10 17  1  0  0  0  0
 11 25  1  0  0  0  0
 12 15  2  0  0  0  0
 12 26  1  0  0  0  0
 13 14  1  0  0  0  0
 13 21  2  0  0  0  0
 14 22  1  0  0  0  0
 15 19  1  0  0  0  0
 15 22  1  0  0  0  0
 16 18  1  0  0  0  0
 16 24  2  0  0  0  0
 17 18  1  0  0  0  0
 20 26  1  0  0  0  0
 22 23  1  0  0  0  0
  1 27  1  0  0  0  0
  2 28  1  0  0  0  0
  3 29  1  0  0  0  0
  4 30  1  0  0  0  0
  5 31  1  0  0  0  0
  6 32  1  0  0  0  0
 17 33  1  0  0  0  0
 17 34  1  0  0  0  0
 18 35  1  0  0  0  0
 18 36  1  0  0  0  0
 19 37  1  0  0  0  0
 19 38  1  0  0  0  0
 19 39  1  0  0  0  0
 20 40  1  0  0  0  0
 20 41  1  0  0  0  0
 20 42  1  0  0  0  0
 25 43  1  0  0  0  0
M  CHG  1  23  -1
M  END
> <Hybrid2>
-5.147181987762451

> <Hybrid2>
-5.121610

$$$$
C39461757
  -OEChem-02152218503D

 33 36  0     1  0  0  0  0  0999 V2000
   10.4194  -25.5413  -11.8580 C   0  0  0  0  0  0  0  0  0  0  0  0
    4.9275  -28.2242   -8.5109 C   0  0  0  0  0  0  0  0  0  0  0  0
    6.9556  -29.3607   -9.1681 C   0  0  0  0  0  0  0  0  0  0  0  0
   11.7100  -25.5185  -12.4064 C   0  0  0  0  0  0  0  0  0  0  0  0
    4.2484  -29.4426   -8.4994 C   0  0  0  0  0  0  0  0  0  0  0  0
    6.2766  -30.5791   -9.1566 C   0  0  0  0  0  0  0  0  0  0  0  0
   11.0782  -27.1670  -10.1592 C   0  0  0  0  0  0  0  0  0  0  0  0
   10.1123  -26.3500  -10.7568 C   0  0  0  0  0  0  0  0  0  0  0  0
    6.2811  -28.1833   -8.8453 C   0  0  0  0  0  0  0  0  0  0  0  0
   12.6899  -26.3315  -11.8192 C   0  0  0  0  0  0  0  0  0  0  0  0
   12.3440  -27.1174  -10.7298 C   0  0  0  0  0  0  0  0  0  0  0  0
    4.9230  -30.6200   -8.8222 C   0  0  0  0  0  0  0  0  0  0  0  0
   14.4106  -27.3970  -11.2257 C   0  0  0  0  0  0  0  0  0  0  0  0
    8.7595  -26.3420  -10.2206 C   0  0  0  0  0  0  0  0  0  0  0  0
    7.7275  -25.4469  -10.8859 C   0  0  0  0  0  0  0  0  0  0  0  0
    7.0074  -26.8807   -8.8571 C   0  0  1  0  0  0  0  0  0  0  0  0
   14.0159  -26.5217  -12.1242 N   0  0  0  0  0  0  0  0  0  0  0  0
    8.4290  -27.0760   -9.1995 N   0  0  0  0  0  0  0  0  0  0  0  0
   15.5518  -27.8032  -11.1951 O   0  5  0  0  0  0  0  0  0  0  0  0
   13.4569  -27.8082  -10.3439 O   0  0  0  0  0  0  0  0  0  0  0  0
    4.2605  -31.8089   -8.8096 O   0  0  0  0  0  0  0  0  0  0  0  0
    6.1956  -25.7264   -9.9931 S   0  0  0  0  0  0  0  0  0  0  0  0
    9.6508  -24.9144  -12.3054 H   0  0  0  0  0  0  0  0  0  0  0  0
    4.3940  -27.3118   -8.2581 H   0  0  0  0  0  0  0  0  0  0  0  0
    8.0103  -29.3383   -9.4300 H   0  0  0  0  0  0  0  0  0  0  0  0
   11.9368  -24.8881  -13.2598 H   0  0  0  0  0  0  0  0  0  0  0  0
    3.1939  -29.4680   -8.2377 H   0  0  0  0  0  0  0  0  0  0  0  0
    6.8077  -31.4927   -9.4086 H   0  0  0  0  0  0  0  0  0  0  0  0
   10.8604  -27.7996   -9.3069 H   0  0  0  0  0  0  0  0  0  0  0  0
    8.0349  -24.4009  -10.8047 H   0  0  0  0  0  0  0  0  0  0  0  0
    7.6163  -25.7216  -11.9382 H   0  0  0  0  0  0  0  0  0  0  0  0
    6.9504  -26.4579   -7.8490 H   0  0  0  0  0  0  0  0  0  0  0  0
    4.8608  -32.5311   -9.0546 H   0  0  0  0  0  0  0  0  0  0  0  0
  1  4  2  0  0  0  0
  1  8  1  0  0  0  0
  2  5  1  0  0  0  0
  2  9  2  0  0  0  0
  3  6  2  0  0  0  0
  3  9  1  0  0  0  0
  4 10  1  0  0  0  0
  5 12  2  0  0  0  0
  6 12  1  0  0  0  0
  7  8  2  0  0  0  0
  7 11  1  0  0  0  0
  8 14  1  0  0  0  0
  9 16  1  0  0  0  0
 10 11  2  0  0  0  0
 10 17  1  0  0  0  0
 11 20  1  0  0  0  0
 12 21  1  0  0  0  0
 13 17  2  0  0  0  0
 13 19  1  0  0  0  0
 13 20  1  0  0  0  0
 14 15  1  0  0  0  0
 14 18  2  0  0  0  0
 15 22  1  0  0  0  0
 16 18  1  0  0  0  0
 16 22  1  0  0  0  0
  1 23  1  0  0  0  0
  2 24  1  0  0  0  0
  3 25  1  0  0  0  0
  4 26  1  0  0  0  0
  5 27  1  0  0  0  0
  6 28  1  0  0  0  0
  7 29  1  0  0  0  0
 15 30  1  0  0  0  0
 15 31  1  0  0  0  0
 16 32  1  0  0  0  0
 21 33  1  0  0  0  0
M  CHG  1  19  -1
M  END
> <Hybrid2>
-5.705933570861816

> <Hybrid2>
-5.705934

$$$$
C39461757
  -OEChem-02152218503D

 33 36  0     1  0  0  0  0  0999 V2000
   11.1616  -26.1410  -12.2582 C   0  0  0  0  0  0  0  0  0  0  0  0
    5.4179  -27.4696   -8.5425 C   0  0  0  0  0  0  0  0  0  0  0  0
    7.3667  -28.8739   -8.8012 C   0  0  0  0  0  0  0  0  0  0  0  0
   12.4607  -26.3509  -12.7432 C   0  0  0  0  0  0  0  0  0  0  0  0
    4.6485  -28.5930   -8.2398 C   0  0  0  0  0  0  0  0  0  0  0  0
    6.5973  -29.9974   -8.4985 C   0  0  0  0  0  0  0  0  0  0  0  0
   11.6621  -27.3034  -10.1699 C   0  0  0  0  0  0  0  0  0  0  0  0
   10.7727  -26.6088  -10.9970 C   0  0  0  0  0  0  0  0  0  0  0  0
    6.7770  -27.6101   -8.8233 C   0  0  0  0  0  0  0  0  0  0  0  0
   13.3645  -27.0454  -11.9266 C   0  0  0  0  0  0  0  0  0  0  0  0
   12.9390  -27.4916  -10.6841 C   0  0  0  0  0  0  0  0  0  0  0  0
    5.2382  -29.8569   -8.2177 C   0  0  0  0  0  0  0  0  0  0  0  0
   14.9878  -28.0314  -11.0094 C   0  0  0  0  0  0  0  0  0  0  0  0
    9.4141  -26.3682  -10.5343 C   0  0  0  0  0  0  0  0  0  0  0  0
    8.4660  -25.6117  -11.4496 C   0  0  0  0  0  0  0  0  0  0  0  0
    7.5999  -26.4089   -9.1464 C   0  0  1  0  0  0  0  0  0  0  0  0
   14.6781  -27.3987  -12.1198 N   0  0  0  0  0  0  0  0  0  0  0  0
    9.0091  -26.7835   -9.3706 N   0  0  0  0  0  0  0  0  0  0  0  0
   16.0942  -28.4918  -10.8297 O   0  5  0  0  0  0  0  0  0  0  0  0
   13.9886  -28.1305  -10.0885 O   0  0  0  0  0  0  0  0  0  0  0  0
    4.4876  -30.9528   -7.9210 O   0  0  0  0  0  0  0  0  0  0  0  0
    6.9002  -25.5418  -10.5749 S   0  0  0  0  0  0  0  0  0  0  0  0
   10.4515  -25.6032  -12.8832 H   0  0  0  0  0  0  0  0  0  0  0  0
    4.9502  -26.4888   -8.5574 H   0  0  0  0  0  0  0  0  0  0  0  0
    8.4250  -28.9929   -9.0188 H   0  0  0  0  0  0  0  0  0  0  0  0
   12.7512  -25.9842  -13.7221 H   0  0  0  0  0  0  0  0  0  0  0  0
    3.5902  -28.4771   -8.0216 H   0  0  0  0  0  0  0  0  0  0  0  0
    7.0626  -30.9789   -8.4826 H   0  0  0  0  0  0  0  0  0  0  0  0
   11.3804  -27.6731   -9.1911 H   0  0  0  0  0  0  0  0  0  0  0  0
    8.8500  -24.6045  -11.6323 H   0  0  0  0  0  0  0  0  0  0  0  0
    8.3550  -26.1453  -12.3972 H   0  0  0  0  0  0  0  0  0  0  0  0
    7.5553  -25.7329   -8.2865 H   0  0  0  0  0  0  0  0  0  0  0  0
    5.0362  -31.7530   -7.9456 H   0  0  0  0  0  0  0  0  0  0  0  0
  1  4  2  0  0  0  0
  1  8  1  0  0  0  0
  2  5  1  0  0  0  0
  2  9  2  0  0  0  0
  3  6  2  0  0  0  0
  3  9  1  0  0  0  0
  4 10  1  0  0  0  0
  5 12  2  0  0  0  0
  6 12  1  0  0  0  0
  7  8  2  0  0  0  0
  7 11  1  0  0  0  0
  8 14  1  0  0  0  0
  9 16  1  0  0  0  0
 10 11  2  0  0  0  0
 10 17  1  0  0  0  0
 11 20  1  0  0  0  0
 12 21  1  0  0  0  0
 13 17  2  0  0  0  0
 13 19  1  0  0  0  0
 13 20  1  0  0  0  0
 14 15  1  0  0  0  0
 14 18  2  0  0  0  0
 15 22  1  0  0  0  0
 16 18  1  0  0  0  0
 16 22  1  0  0  0  0
  1 23  1  0  0  0  0
  2 24  1  0  0  0  0
  3 25  1  0  0  0  0
  4 26  1  0  0  0  0
  5 27  1  0  0  0  0
  6 28  1  0  0  0  0
  7 29  1  0  0  0  0
 15 30  1  0  0  0  0
 15 31  1  0  0  0  0
 16 32  1  0  0  0  0
 21 33  1  0  0  0  0
M  CHG  1  19  -1
M  END
> <Hybrid2>
-5.705933570861816

> <Hybrid2>
-5.149978

$$$$
C39850516
  -OEChem-02152218503D

 48 50  0     1  0  0  0  0  0999 V2000
    6.7880  -28.9571   -8.9431 C   0  0  0  0  0  0  0  0  0  0  0  0
    7.8707  -25.7400  -10.3790 C   0  0  0  0  0  0  0  0  0  0  0  0
   13.0271  -26.7030  -11.9015 C   0  0  0  0  0  0  0  0  0  0  0  0
    7.8469  -28.1805   -9.6844 C   0  0  0  0  0  0  0  0  0  0  0  0
    6.4380  -27.2968   -7.2311 C   0  0  0  0  0  0  0  0  0  0  0  0
    7.4894  -26.4178   -7.9478 C   0  0  0  0  0  0  0  0  0  0  0  0
   11.0277  -25.2525  -11.9953 C   0  0  0  0  0  0  0  0  0  0  0  0
   11.2821  -26.9570  -10.1551 C   0  0  0  0  0  0  0  0  0  0  0  0
    9.9069  -24.5951  -11.1944 C   0  0  0  0  0  0  0  0  0  0  0  0
   10.1553  -26.2643   -9.3913 C   0  0  0  0  0  0  0  0  0  0  0  0
   12.0141  -25.9747  -11.0735 C   0  0  0  0  0  0  0  0  0  0  0  0
    5.7216  -28.0127   -8.4024 C   0  0  1  0  0  0  0  0  0  0  0  0
    7.2742  -26.7613   -9.4439 C   0  0  1  0  0  0  0  0  0  0  0  0
    5.7260  -26.9481   -9.5399 C   0  0  0  0  0  0  0  0  0  0  0  0
    4.3940  -28.6364   -8.0376 C   0  0  0  0  0  0  0  0  0  0  0  0
    5.2051  -27.4815  -10.8937 C   0  0  0  0  0  0  0  0  0  0  0  0
    4.9110  -25.6740   -9.2317 C   0  0  0  0  0  0  0  0  0  0  0  0
    6.8396  -30.2353   -8.7891 N   0  0  0  0  0  0  0  0  0  0  0  0
    9.2529  -25.5670  -10.3159 N   0  0  0  0  0  0  0  0  0  0  0  0
   12.5603  -27.5949  -12.6630 O   0  5  0  0  0  0  0  0  0  0  0  0
    7.1291  -25.1172  -11.1433 O   0  0  0  0  0  0  0  0  0  0  0  0
   14.2208  -26.3280  -11.7289 O   0  0  0  0  0  0  0  0  0  0  0  0
    7.9984  -30.7084   -9.4091 O   0  0  0  0  0  0  0  0  0  0  0  0
    8.8331  -28.3310   -9.2365 H   0  0  0  0  0  0  0  0  0  0  0  0
    7.8754  -28.4662  -10.7393 H   0  0  0  0  0  0  0  0  0  0  0  0
    6.9220  -28.0033   -6.5467 H   0  0  0  0  0  0  0  0  0  0  0  0
    5.7529  -26.6777   -6.6420 H   0  0  0  0  0  0  0  0  0  0  0  0
    7.3242  -25.3551   -7.7380 H   0  0  0  0  0  0  0  0  0  0  0  0
    8.5045  -26.6538   -7.6088 H   0  0  0  0  0  0  0  0  0  0  0  0
   10.5967  -25.9495  -12.7147 H   0  0  0  0  0  0  0  0  0  0  0  0
   11.5617  -24.4839  -12.5573 H   0  0  0  0  0  0  0  0  0  0  0  0
   11.9928  -27.3690   -9.4387 H   0  0  0  0  0  0  0  0  0  0  0  0
   10.8715  -27.7839  -10.7323 H   0  0  0  0  0  0  0  0  0  0  0  0
   10.3129  -23.7594  -10.6143 H   0  0  0  0  0  0  0  0  0  0  0  0
    9.1383  -24.1811  -11.8578 H   0  0  0  0  0  0  0  0  0  0  0  0
    9.5519  -26.9936   -8.8395 H   0  0  0  0  0  0  0  0  0  0  0  0
   10.5853  -25.5866   -8.6521 H   0  0  0  0  0  0  0  0  0  0  0  0
   12.5490  -25.2433  -10.4715 H   0  0  0  0  0  0  0  0  0  0  0  0
    3.7021  -27.8767   -7.6616 H   0  0  0  0  0  0  0  0  0  0  0  0
    4.5261  -29.3959   -7.2611 H   0  0  0  0  0  0  0  0  0  0  0  0
    3.9398  -29.1132   -8.9116 H   0  0  0  0  0  0  0  0  0  0  0  0
    5.2419  -26.6823  -11.6233 H   0  0  0  0  0  0  0  0  0  0  0  0
    4.1850  -27.8216  -10.7677 H   0  0  0  0  0  0  0  0  0  0  0  0
    5.8336  -28.3036  -11.2122 H   0  0  0  0  0  0  0  0  0  0  0  0
    4.9758  -25.0004  -10.0777 H   0  0  0  0  0  0  0  0  0  0  0  0
    5.3206  -25.1983   -8.3487 H   0  0  0  0  0  0  0  0  0  0  0  0
    3.8779  -25.9497   -9.0572 H   0  0  0  0  0  0  0  0  0  0  0  0
    7.9374  -31.6630   -9.2349 H   0  0  0  0  0  0  0  0  0  0  0  0
  1  4  1  0  0  0  0
  1 12  1  0  0  0  0
  1 18  2  0  0  0  0
  2 13  1  0  0  0  0
  2 19  1  0  0  0  0
  2 21  2  0  0  0  0
  3 11  1  0  0  0  0
  3 20  1  0  0  0  0
  3 22  2  0  0  0  0
  4 13  1  0  0  0  0
  5  6  1  0  0  0  0
  5 12  1  0  0  0  0
  6 13  1  0  0  0  0
  7  9  1  0  0  0  0
  7 11  1  0  0  0  0
  8 10  1  0  0  0  0
  8 11  1  0  0  0  0
  9 19  1  0  0  0  0
 10 19  1  0  0  0  0
 12 14  1  0  0  0  0
 12 15  1  0  0  0  0
 13 14  1  0  0  0  0
 14 16  1  0  0  0  0
 14 17  1  0  0  0  0
 18 23  1  0  0  0  0
  4 24  1  0  0  0  0
  4 25  1  0  0  0  0
  5 26  1  0  0  0  0
  5 27  1  0  0  0  0
  6 28  1  0  0  0  0
  6 29  1  0  0  0  0
  7 30  1  0  0  0  0
  7 31  1  0  0  0  0
  8 32  1  0  0  0  0
  8 33  1  0  0  0  0
  9 34  1  0  0  0  0
  9 35  1  0  0  0  0
 10 36  1  0  0  0  0
 10 37  1  0  0  0  0
 11 38  1  0  0  0  0
 15 39  1  0  0  0  0
 15 40  1  0  0  0  0
 15 41  1  0  0  0  0
 16 42  1  0  0  0  0
 16 43  1  0  0  0  0
 16 44  1  0  0  0  0
 17 45  1  0  0  0  0
 17 46  1  0  0  0  0
 17 47  1  0  0  0  0
 23 48  1  0  0  0  0
M  CHG  1  20  -1
M  END
> <Hybrid2>
-3.796541929244995

> <Hybrid2>
-3.796542

$$$$
C39850516
  -OEChem-02152218503D

 48 50  0     1  0  0  0  0  0999 V2000
    7.5100  -28.9940   -9.2872 C   0  0  0  0  0  0  0  0  0  0  0  0
    8.9183  -26.0860  -11.0631 C   0  0  0  0  0  0  0  0  0  0  0  0
   14.0427  -26.0368  -12.9932 C   0  0  0  0  0  0  0  0  0  0  0  0
    8.4587  -28.4753  -10.3383 C   0  0  0  0  0  0  0  0  0  0  0  0
    8.1544  -27.4084   -7.5899 C   0  0  0  0  0  0  0  0  0  0  0  0
    9.1309  -26.7906   -8.6177 C   0  0  0  0  0  0  0  0  0  0  0  0
   12.6928  -26.3822  -10.9578 C   0  0  0  0  0  0  0  0  0  0  0  0
   11.7595  -26.9830  -13.2601 C   0  0  0  0  0  0  0  0  0  0  0  0
   11.2884  -26.7612  -10.5007 C   0  0  0  0  0  0  0  0  0  0  0  0
   10.6668  -26.0198  -12.8057 C   0  0  0  0  0  0  0  0  0  0  0  0
   13.0008  -26.9116  -12.3622 C   0  0  0  0  0  0  0  0  0  0  0  0
    6.9514  -27.8400   -8.4640 C   0  0  1  0  0  0  0  0  0  0  0  0
    8.3861  -26.9735   -9.9646 C   0  0  1  0  0  0  0  0  0  0  0  0
    6.8915  -26.7452   -9.5709 C   0  0  0  0  0  0  0  0  0  0  0  0
    5.6828  -28.1185   -7.6908 C   0  0  0  0  0  0  0  0  0  0  0  0
    5.8601  -27.0405  -10.6833 C   0  0  0  0  0  0  0  0  0  0  0  0
    6.5794  -25.3246   -9.0543 C   0  0  0  0  0  0  0  0  0  0  0  0
    7.2641  -30.2487   -9.1274 N   0  0  0  0  0  0  0  0  0  0  0  0
   10.2522  -26.2840  -11.4255 N   0  0  0  0  0  0  0  0  0  0  0  0
   13.7022  -24.8342  -13.1693 O   0  5  0  0  0  0  0  0  0  0  0  0
    8.1786  -25.2441  -11.5778 O   0  0  0  0  0  0  0  0  0  0  0  0
   15.1289  -26.6202  -13.2672 O   0  0  0  0  0  0  0  0  0  0  0  0
    8.0085  -30.9676  -10.0655 O   0  0  0  0  0  0  0  0  0  0  0  0
    9.4570  -28.9042  -10.2155 H   0  0  0  0  0  0  0  0  0  0  0  0
    8.0867  -28.6930  -11.3430 H   0  0  0  0  0  0  0  0  0  0  0  0
    8.6178  -28.2572   -7.0735 H   0  0  0  0  0  0  0  0  0  0  0  0
    7.8725  -26.6701   -6.8316 H   0  0  0  0  0  0  0  0  0  0  0  0
    9.3267  -25.7364   -8.3915 H   0  0  0  0  0  0  0  0  0  0  0  0
   10.0997  -27.3027   -8.6052 H   0  0  0  0  0  0  0  0  0  0  0  0
   12.8010  -25.2937  -10.9290 H   0  0  0  0  0  0  0  0  0  0  0  0
   13.4214  -26.7978  -10.2533 H   0  0  0  0  0  0  0  0  0  0  0  0
   11.3651  -28.0027  -13.2355 H   0  0  0  0  0  0  0  0  0  0  0  0
   12.0283  -26.7622  -14.2958 H   0  0  0  0  0  0  0  0  0  0  0  0
   11.2234  -27.8541  -10.3817 H   0  0  0  0  0  0  0  0  0  0  0  0
   11.0644  -26.3310   -9.5108 H   0  0  0  0  0  0  0  0  0  0  0  0
   11.0233  -24.9798  -12.8425 H   0  0  0  0  0  0  0  0  0  0  0  0
    9.8237  -26.0784  -13.5035 H   0  0  0  0  0  0  0  0  0  0  0  0
   13.4441  -27.9128  -12.2780 H   0  0  0  0  0  0  0  0  0  0  0  0
    5.3671  -27.2296   -7.1361 H   0  0  0  0  0  0  0  0  0  0  0  0
    5.8385  -28.9324   -6.9763 H   0  0  0  0  0  0  0  0  0  0  0  0
    4.8738  -28.4060   -8.3692 H   0  0  0  0  0  0  0  0  0  0  0  0
    5.8837  -26.2350  -11.4065 H   0  0  0  0  0  0  0  0  0  0  0  0
    4.8752  -27.1109  -10.2390 H   0  0  0  0  0  0  0  0  0  0  0  0
    6.1187  -27.9765  -11.1622 H   0  0  0  0  0  0  0  0  0  0  0  0
    6.5597  -24.6402   -9.8939 H   0  0  0  0  0  0  0  0  0  0  0  0
    7.3500  -25.0269   -8.3534 H   0  0  0  0  0  0  0  0  0  0  0  0
    5.6147  -25.3324   -8.5614 H   0  0  0  0  0  0  0  0  0  0  0  0
    7.7518  -31.8824   -9.8590 H   0  0  0  0  0  0  0  0  0  0  0  0
  1  4  1  0  0  0  0
  1 12  1  0  0  0  0
  1 18  2  0  0  0  0
  2 13  1  0  0  0  0
  2 19  1  0  0  0  0
  2 21  2  0  0  0  0
  3 11  1  0  0  0  0
  3 20  1  0  0  0  0
  3 22  2  0  0  0  0
  4 13  1  0  0  0  0
  5  6  1  0  0  0  0
  5 12  1  0  0  0  0
  6 13  1  0  0  0  0
  7  9  1  0  0  0  0
  7 11  1  0  0  0  0
  8 10  1  0  0  0  0
  8 11  1  0  0  0  0
  9 19  1  0  0  0  0
 10 19  1  0  0  0  0
 12 14  1  0  0  0  0
 12 15  1  0  0  0  0
 13 14  1  0  0  0  0
 14 16  1  0  0  0  0
 14 17  1  0  0  0  0
 18 23  1  0  0  0  0
  4 24  1  0  0  0  0
  4 25  1  0  0  0  0
  5 26  1  0  0  0  0
  5 27  1  0  0  0  0
  6 28  1  0  0  0  0
  6 29  1  0  0  0  0
  7 30  1  0  0  0  0
  7 31  1  0  0  0  0
  8 32  1  0  0  0  0
  8 33  1  0  0  0  0
  9 34  1  0  0  0  0
  9 35  1  0  0  0  0
 10 36  1  0  0  0  0
 10 37  1  0  0  0  0
 11 38  1  0  0  0  0
 15 39  1  0  0  0  0
 15 40  1  0  0  0  0
 15 41  1  0  0  0  0
 16 42  1  0  0  0  0
 16 43  1  0  0  0  0
 16 44  1  0  0  0  0
 17 45  1  0  0  0  0
 17 46  1  0  0  0  0
 17 47  1  0  0  0  0
 23 48  1  0  0  0  0
M  CHG  1  20  -1
M  END
> <Hybrid2>
-3.796541929244995

> <Hybrid2>
-3.193781

$$$$
C40117568
  -OEChem-02152218503D

 33 35  0     1  0  0  0  0  0999 V2000
   11.2311  -27.1788  -10.4505 C   0  0  0  0  0  0  0  0  0  0  0  0
   11.7714  -26.5645  -12.7238 C   0  0  0  0  0  0  0  0  0  0  0  0
   12.5428  -27.6111  -10.2555 C   0  0  0  0  0  0  0  0  0  0  0  0
   13.0832  -26.9968  -12.5288 C   0  0  0  0  0  0  0  0  0  0  0  0
    7.2570  -26.7189   -8.7473 C   0  0  0  0  0  0  0  0  0  0  0  0
    6.3019  -27.7321   -8.4932 C   0  0  0  0  0  0  0  0  0  0  0  0
   10.8453  -26.6556  -11.6847 C   0  0  0  0  0  0  0  0  0  0  0  0
   13.4689  -27.5201  -11.2947 C   0  0  0  0  0  0  0  0  0  0  0  0
    6.8861  -26.1338   -9.9356 C   0  0  0  0  0  0  0  0  0  0  0  0
    5.4154  -27.6936   -9.5442 C   0  0  0  0  0  0  0  0  0  0  0  0
    9.6779  -24.1472  -10.5305 C   0  0  0  0  0  0  0  0  0  0  0  0
    8.9128  -25.1233  -11.0526 C   0  0  0  0  0  0  0  0  0  0  0  0
    8.6971  -23.2801   -9.7918 C   0  0  0  0  0  0  0  0  0  0  0  0
    9.4460  -26.1945  -11.8926 C   0  0  0  0  0  0  0  0  0  0  0  0
    7.4532  -25.0354  -10.7402 C   0  0  2  0  0  0  0  0  0  0  0  0
    4.2141  -28.4731   -9.8749 C   0  0  0  0  0  0  0  0  0  0  0  0
    7.4364  -23.8352   -9.9504 N   0  0  0  0  0  0  0  0  0  0  0  0
   10.8929  -23.8284  -10.5329 O   0  5  0  0  0  0  0  0  0  0  0  0
    8.9739  -22.2650   -9.1702 O   0  0  0  0  0  0  0  0  0  0  0  0
    8.7567  -26.7017  -12.7791 O   0  0  0  0  0  0  0  0  0  0  0  0
    5.7644  -26.7220  -10.4278 O   0  0  0  0  0  0  0  0  0  0  0  0
   15.2462  -28.1057  -11.0305 Br  0  0  0  0  0  0  0  0  0  0  0  0
   10.5176  -27.2543   -9.6339 H   0  0  0  0  0  0  0  0  0  0  0  0
   11.4815  -26.1584  -13.6895 H   0  0  0  0  0  0  0  0  0  0  0  0
   12.8272  -28.0164   -9.2878 H   0  0  0  0  0  0  0  0  0  0  0  0
   13.7925  -26.9189  -13.3488 H   0  0  0  0  0  0  0  0  0  0  0  0
    8.1086  -26.4507   -8.1387 H   0  0  0  0  0  0  0  0  0  0  0  0
    6.2670  -28.4047   -7.6481 H   0  0  0  0  0  0  0  0  0  0  0  0
    6.8565  -24.8625  -11.6410 H   0  0  0  0  0  0  0  0  0  0  0  0
    3.3042  -28.0114   -9.4518 H   0  0  0  0  0  0  0  0  0  0  0  0
    4.0602  -28.5652  -10.9661 H   0  0  0  0  0  0  0  0  0  0  0  0
    4.2669  -29.5092   -9.4918 H   0  0  0  0  0  0  0  0  0  0  0  0
    6.5919  -23.4363   -9.5512 H   0  0  0  0  0  0  0  0  0  0  0  0
  1  3  2  0  0  0  0
  1  7  1  0  0  0  0
  2  4  1  0  0  0  0
  2  7  2  0  0  0  0
  3  8  1  0  0  0  0
  4  8  2  0  0  0  0
  5  6  1  0  0  0  0
  5  9  2  0  0  0  0
  6 10  2  0  0  0  0
  7 14  1  0  0  0  0
  8 22  1  0  0  0  0
  9 15  1  0  0  0  0
  9 21  1  0  0  0  0
 10 16  1  0  0  0  0
 10 21  1  0  0  0  0
 11 12  2  0  0  0  0
 11 13  1  0  0  0  0
 11 18  1  0  0  0  0
 12 14  1  0  0  0  0
 12 15  1  0  0  0  0
 13 17  1  0  0  0  0
 13 19  2  0  0  0  0
 14 20  2  0  0  0  0
 15 17  1  0  0  0  0
  1 23  1  0  0  0  0
  2 24  1  0  0  0  0
  3 25  1  0  0  0  0
  4 26  1  0  0  0  0
  5 27  1  0  0  0  0
  6 28  1  0  0  0  0
 15 29  1  0  0  0  0
 16 30  1  0  0  0  0
 16 31  1  0  0  0  0
 16 32  1  0  0  0  0
 17 33  1  0  0  0  0
M  CHG  1  18  -1
M  END
> <Hybrid2>
-4.443337440490723

> <Hybrid2>
-4.443337

$$$$
C40117568
  -OEChem-02152218503D

 33 35  0     1  0  0  0  0  0999 V2000
    8.5700  -28.0785  -10.0543 C   0  0  0  0  0  0  0  0  0  0  0  0
    7.7649  -26.0169   -9.0855 C   0  0  0  0  0  0  0  0  0  0  0  0
    7.4138  -28.7311   -9.6266 C   0  0  0  0  0  0  0  0  0  0  0  0
    6.6086  -26.6695   -8.6578 C   0  0  0  0  0  0  0  0  0  0  0  0
   12.4120  -28.4171  -12.0618 C   0  0  0  0  0  0  0  0  0  0  0  0
   13.5952  -29.0185  -11.5702 C   0  0  0  0  0  0  0  0  0  0  0  0
    8.7456  -26.7214   -9.7837 C   0  0  0  0  0  0  0  0  0  0  0  0
    6.4331  -28.0266   -8.9284 C   0  0  0  0  0  0  0  0  0  0  0  0
   12.5610  -27.0640  -11.8650 C   0  0  0  0  0  0  0  0  0  0  0  0
   14.3830  -27.9899  -11.1082 C   0  0  0  0  0  0  0  0  0  0  0  0
    9.3447  -25.9827  -12.6267 C   0  0  0  0  0  0  0  0  0  0  0  0
   10.2890  -25.9801  -11.6679 C   0  0  0  0  0  0  0  0  0  0  0  0
   10.1312  -25.8883  -13.9041 C   0  0  0  0  0  0  0  0  0  0  0  0
    9.9789  -26.0254  -10.2399 C   0  0  0  0  0  0  0  0  0  0  0  0
   11.7009  -25.9011  -12.1536 C   0  0  2  0  0  0  0  0  0  0  0  0
   15.7142  -27.9442  -10.4872 C   0  0  0  0  0  0  0  0  0  0  0  0
   11.4765  -25.8401  -13.5716 N   0  0  0  0  0  0  0  0  0  0  0  0
    8.0907  -26.0291  -12.6843 O   0  5  0  0  0  0  0  0  0  0  0  0
    9.6567  -25.8551  -15.0297 O   0  0  0  0  0  0  0  0  0  0  0  0
   10.7160  -25.4780   -9.4180 O   0  0  0  0  0  0  0  0  0  0  0  0
   13.7598  -26.7952  -11.2843 O   0  0  0  0  0  0  0  0  0  0  0  0
    4.8665  -28.9108   -8.3490 Br  0  0  0  0  0  0  0  0  0  0  0  0
    9.3279  -28.6371  -10.5977 H   0  0  0  0  0  0  0  0  0  0  0  0
    7.8914  -24.9592   -8.8692 H   0  0  0  0  0  0  0  0  0  0  0  0
    7.2925  -29.7889   -9.8455 H   0  0  0  0  0  0  0  0  0  0  0  0
    5.8541  -26.1060   -8.1149 H   0  0  0  0  0  0  0  0  0  0  0  0
   11.5584  -28.9107  -12.5040 H   0  0  0  0  0  0  0  0  0  0  0  0
   13.8400  -30.0709  -11.5561 H   0  0  0  0  0  0  0  0  0  0  0  0
   12.1844  -24.9705  -11.8418 H   0  0  0  0  0  0  0  0  0  0  0  0
   16.5105  -27.8440  -11.2461 H   0  0  0  0  0  0  0  0  0  0  0  0
   15.8208  -27.0977   -9.7837 H   0  0  0  0  0  0  0  0  0  0  0  0
   15.9337  -28.8532   -9.8968 H   0  0  0  0  0  0  0  0  0  0  0  0
   12.2231  -25.7693  -14.2567 H   0  0  0  0  0  0  0  0  0  0  0  0
  1  3  2  0  0  0  0
  1  7  1  0  0  0  0
  2  4  1  0  0  0  0
  2  7  2  0  0  0  0
  3  8  1  0  0  0  0
  4  8  2  0  0  0  0
  5  6  1  0  0  0  0
  5  9  2  0  0  0  0
  6 10  2  0  0  0  0
  7 14  1  0  0  0  0
  8 22  1  0  0  0  0
  9 15  1  0  0  0  0
  9 21  1  0  0  0  0
 10 16  1  0  0  0  0
 10 21  1  0  0  0  0
 11 12  2  0  0  0  0
 11 13  1  0  0  0  0
 11 18  1  0  0  0  0
 12 14  1  0  0  0  0
 12 15  1  0  0  0  0
 13 17  1  0  0  0  0
 13 19  2  0  0  0  0
 14 20  2  0  0  0  0
 15 17  1  0  0  0  0
  1 23  1  0  0  0  0
  2 24  1  0  0  0  0
  3 25  1  0  0  0  0
  4 26  1  0  0  0  0
  5 27  1  0  0  0  0
  6 28  1  0  0  0  0
 15 29  1  0  0  0  0
 16 30  1  0  0  0  0
 16 31  1  0  0  0  0
 16 32  1  0  0  0  0
 17 33  1  0  0  0  0
M  CHG  1  18  -1
M  END
> <Hybrid2>
-4.443337440490723

> <Hybrid2>
-3.901821

$$$$
C40125410
  -OEChem-02152218503D

 44 46  0     1  0  0  0  0  0999 V2000
    5.3201  -28.7895   -8.0269 C   0  0  0  0  0  0  0  0  0  0  0  0
   10.6373  -27.2040   -9.2243 C   0  0  0  0  0  0  0  0  0  0  0  0
    9.5475  -26.1755  -11.1195 C   0  0  0  0  0  0  0  0  0  0  0  0
    4.2834  -29.5026   -7.4249 C   0  0  0  0  0  0  0  0  0  0  0  0
   11.7987  -27.3653   -9.9797 C   0  0  0  0  0  0  0  0  0  0  0  0
   10.7090  -26.3368  -11.8749 C   0  0  0  0  0  0  0  0  0  0  0  0
    5.2477  -30.2849   -9.9231 C   0  0  0  0  0  0  0  0  0  0  0  0
    5.8022  -29.1806   -9.2760 C   0  0  0  0  0  0  0  0  0  0  0  0
    9.5116  -26.6091   -9.7943 C   0  0  0  0  0  0  0  0  0  0  0  0
    3.7289  -30.6069   -8.0719 C   0  0  0  0  0  0  0  0  0  0  0  0
   11.8346  -26.9317  -11.3050 C   0  0  0  0  0  0  0  0  0  0  0  0
    4.2111  -30.9981   -9.3210 C   0  0  0  0  0  0  0  0  0  0  0  0
    6.0847  -26.0927   -9.9278 C   0  0  0  0  0  0  0  0  0  0  0  0
    7.0465  -26.9901   -9.6439 C   0  0  0  0  0  0  0  0  0  0  0  0
    6.6513  -24.7918   -9.4320 C   0  0  0  0  0  0  0  0  0  0  0  0
    6.9077  -28.4199   -9.9181 C   0  0  0  0  0  0  0  0  0  0  0  0
    8.2716  -26.4369   -8.9891 C   0  0  2  0  0  0  0  0  0  0  0  0
    2.6203  -31.3677   -7.4263 C   0  0  0  0  0  0  0  0  0  0  0  0
   14.1851  -27.7081  -11.4854 C   0  0  0  0  0  0  0  0  0  0  0  0
   13.0519  -26.6583  -13.4506 C   0  0  0  0  0  0  0  0  0  0  0  0
    7.9053  -25.0504   -8.8998 N   0  0  0  0  0  0  0  0  0  0  0  0
   13.0094  -27.0930  -12.0685 N   0  0  0  0  0  0  0  0  0  0  0  0
    4.9400  -26.1013  -10.4451 O   0  5  0  0  0  0  0  0  0  0  0  0
    6.0935  -23.7060   -9.4890 O   0  0  0  0  0  0  0  0  0  0  0  0
    7.7059  -28.9993  -10.6563 O   0  0  0  0  0  0  0  0  0  0  0  0
    3.6830  -32.0567   -9.9510 F   0  0  0  0  0  0  0  0  0  0  0  0
    5.7450  -27.9305   -7.5137 H   0  0  0  0  0  0  0  0  0  0  0  0
   10.6178  -27.5456   -8.1930 H   0  0  0  0  0  0  0  0  0  0  0  0
    8.6750  -25.7126  -11.5725 H   0  0  0  0  0  0  0  0  0  0  0  0
    3.9150  -29.1909   -6.4511 H   0  0  0  0  0  0  0  0  0  0  0  0
   12.6697  -27.8314   -9.5263 H   0  0  0  0  0  0  0  0  0  0  0  0
   10.7256  -25.9959  -12.9069 H   0  0  0  0  0  0  0  0  0  0  0  0
    5.6145  -30.5981  -10.8972 H   0  0  0  0  0  0  0  0  0  0  0  0
    8.4126  -26.8284   -7.9776 H   0  0  0  0  0  0  0  0  0  0  0  0
    1.6494  -30.9494   -7.7185 H   0  0  0  0  0  0  0  0  0  0  0  0
    2.6437  -32.4268   -7.7139 H   0  0  0  0  0  0  0  0  0  0  0  0
    2.6987  -31.3340   -6.3318 H   0  0  0  0  0  0  0  0  0  0  0  0
   14.9906  -27.7429  -12.2337 H   0  0  0  0  0  0  0  0  0  0  0  0
   14.5158  -27.1177  -10.6181 H   0  0  0  0  0  0  0  0  0  0  0  0
   13.9414  -28.7306  -11.1614 H   0  0  0  0  0  0  0  0  0  0  0  0
   14.0464  -26.8682  -13.8711 H   0  0  0  0  0  0  0  0  0  0  0  0
   12.2880  -27.1990  -14.0286 H   0  0  0  0  0  0  0  0  0  0  0  0
   12.8532  -25.5775  -13.5013 H   0  0  0  0  0  0  0  0  0  0  0  0
    8.5008  -24.3366   -8.4908 H   0  0  0  0  0  0  0  0  0  0  0  0
  1  4  2  0  0  0  0
  1  8  1  0  0  0  0
  2  5  2  0  0  0  0
  2  9  1  0  0  0  0
  3  6  1  0  0  0  0
  3  9  2  0  0  0  0
  4 10  1  0  0  0  0
  5 11  1  0  0  0  0
  6 11  2  0  0  0  0
  7  8  2  0  0  0  0
  7 12  1  0  0  0  0
  8 16  1  0  0  0  0
  9 17  1  0  0  0  0
 10 12  2  0  0  0  0
 10 18  1  0  0  0  0
 11 22  1  0  0  0  0
 12 26  1  0  0  0  0
 13 14  2  0  0  0  0
 13 15  1  0  0  0  0
 13 23  1  0  0  0  0
 14 16  1  0  0  0  0
 14 17  1  0  0  0  0
 15 21  1  0  0  0  0
 15 24  2  0  0  0  0
 16 25  2  0  0  0  0
 17 21  1  0  0  0  0
 19 22  1  0  0  0  0
 20 22  1  0  0  0  0
  1 27  1  0  0  0  0
  2 28  1  0  0  0  0
  3 29  1  0  0  0  0
  4 30  1  0  0  0  0
  5 31  1  0  0  0  0
  6 32  1  0  0  0  0
  7 33  1  0  0  0  0
 17 34  1  0  0  0  0
 18 35  1  0  0  0  0
 18 36  1  0  0  0  0
 18 37  1  0  0  0  0
 19 38  1  0  0  0  0
 19 39  1  0  0  0  0
 19 40  1  0  0  0  0
 20 41  1  0  0  0  0
 20 42  1  0  0  0  0
 20 43  1  0  0  0  0
 21 44  1  0  0  0  0
M  CHG  1  23  -1
M  END
> <Hybrid2>
-6.099637985229492

> <Hybrid2>
-6.099638

$$$$
C40125410
  -OEChem-02152218503D

 44 46  0     1  0  0  0  0  0999 V2000
    6.1465  -28.3284   -8.2360 C   0  0  0  0  0  0  0  0  0  0  0  0
   11.5847  -27.0712   -9.2684 C   0  0  0  0  0  0  0  0  0  0  0  0
   10.6677  -26.3481  -11.3834 C   0  0  0  0  0  0  0  0  0  0  0  0
    5.0467  -28.9110   -7.6062 C   0  0  0  0  0  0  0  0  0  0  0  0
   12.7914  -27.3788   -9.8967 C   0  0  0  0  0  0  0  0  0  0  0  0
   11.8744  -26.6557  -12.0117 C   0  0  0  0  0  0  0  0  0  0  0  0
    6.1615  -30.1149   -9.8625 C   0  0  0  0  0  0  0  0  0  0  0  0
    6.7039  -28.9303   -9.3642 C   0  0  0  0  0  0  0  0  0  0  0  0
   10.5228  -26.5559  -10.0117 C   0  0  0  0  0  0  0  0  0  0  0  0
    4.5043  -30.0955   -8.1045 C   0  0  0  0  0  0  0  0  0  0  0  0
   12.9363  -27.1710  -11.2684 C   0  0  0  0  0  0  0  0  0  0  0  0
    5.0617  -30.6975   -9.2327 C   0  0  0  0  0  0  0  0  0  0  0  0
    7.1329  -25.9990  -10.4880 C   0  0  0  0  0  0  0  0  0  0  0  0
    8.0421  -26.8566   -9.9891 C   0  0  0  0  0  0  0  0  0  0  0  0
    7.7046  -24.6458  -10.1696 C   0  0  0  0  0  0  0  0  0  0  0  0
    7.8767  -28.3088  -10.0359 C   0  0  0  0  0  0  0  0  0  0  0  0
    9.2345  -26.2278   -9.3422 C   0  0  2  0  0  0  0  0  0  0  0  0
    3.3280  -30.7164   -7.4296 C   0  0  0  0  0  0  0  0  0  0  0  0
   15.2671  -28.0142  -11.1403 C   0  0  0  0  0  0  0  0  0  0  0  0
   14.3125  -27.2807  -13.3310 C   0  0  0  0  0  0  0  0  0  0  0  0
    8.9081  -24.8384   -9.5085 N   0  0  0  0  0  0  0  0  0  0  0  0
   14.1568  -27.4800  -11.9037 N   0  0  0  0  0  0  0  0  0  0  0  0
    6.0286  -26.0696  -11.0825 O   0  5  0  0  0  0  0  0  0  0  0  0
    7.1880  -23.5733  -10.4454 O   0  0  0  0  0  0  0  0  0  0  0  0
    8.7065  -29.0184  -10.6067 O   0  0  0  0  0  0  0  0  0  0  0  0
    4.5459  -31.8347   -9.7197 F   0  0  0  0  0  0  0  0  0  0  0  0
    6.5613  -27.4053   -7.8392 H   0  0  0  0  0  0  0  0  0  0  0  0
   11.4803  -27.2372   -8.1996 H   0  0  0  0  0  0  0  0  0  0  0  0
    9.8454  -25.9487  -11.9708 H   0  0  0  0  0  0  0  0  0  0  0  0
    4.6197  -28.4352   -6.7273 H   0  0  0  0  0  0  0  0  0  0  0  0
   13.6120  -27.7812   -9.3084 H   0  0  0  0  0  0  0  0  0  0  0  0
   11.9760  -26.4904  -13.0812 H   0  0  0  0  0  0  0  0  0  0  0  0
    6.5868  -30.5921  -10.7416 H   0  0  0  0  0  0  0  0  0  0  0  0
    9.2898  -26.4495   -8.2726 H   0  0  0  0  0  0  0  0  0  0  0  0
    2.3947  -30.3325   -7.8592 H   0  0  0  0  0  0  0  0  0  0  0  0
    3.3374  -31.8087   -7.5377 H   0  0  0  0  0  0  0  0  0  0  0  0
    3.3288  -30.5039   -6.3526 H   0  0  0  0  0  0  0  0  0  0  0  0
   16.1226  -28.1886  -11.8094 H   0  0  0  0  0  0  0  0  0  0  0  0
   15.5538  -27.2954  -10.3585 H   0  0  0  0  0  0  0  0  0  0  0  0
   14.9676  -28.9639  -10.6732 H   0  0  0  0  0  0  0  0  0  0  0  0
   15.3272  -27.5775  -13.6347 H   0  0  0  0  0  0  0  0  0  0  0  0
   13.5747  -27.8938  -13.8693 H   0  0  0  0  0  0  0  0  0  0  0  0
   14.1533  -26.2194  -13.5724 H   0  0  0  0  0  0  0  0  0  0  0  0
    9.4958  -24.0791   -9.1775 H   0  0  0  0  0  0  0  0  0  0  0  0
  1  4  2  0  0  0  0
  1  8  1  0  0  0  0
  2  5  2  0  0  0  0
  2  9  1  0  0  0  0
  3  6  1  0  0  0  0
  3  9  2  0  0  0  0
  4 10  1  0  0  0  0
  5 11  1  0  0  0  0
  6 11  2  0  0  0  0
  7  8  2  0  0  0  0
  7 12  1  0  0  0  0
  8 16  1  0  0  0  0
  9 17  1  0  0  0  0
 10 12  2  0  0  0  0
 10 18  1  0  0  0  0
 11 22  1  0  0  0  0
 12 26  1  0  0  0  0
 13 14  2  0  0  0  0
 13 15  1  0  0  0  0
 13 23  1  0  0  0  0
 14 16  1  0  0  0  0
 14 17  1  0  0  0  0
 15 21  1  0  0  0  0
 15 24  2  0  0  0  0
 16 25  2  0  0  0  0
 17 21  1  0  0  0  0
 19 22  1  0  0  0  0
 20 22  1  0  0  0  0
  1 27  1  0  0  0  0
  2 28  1  0  0  0  0
  3 29  1  0  0  0  0
  4 30  1  0  0  0  0
  5 31  1  0  0  0  0
  6 32  1  0  0  0  0
  7 33  1  0  0  0  0
 17 34  1  0  0  0  0
 18 35  1  0  0  0  0
 18 36  1  0  0  0  0
 18 37  1  0  0  0  0
 19 38  1  0  0  0  0
 19 39  1  0  0  0  0
 19 40  1  0  0  0  0
 20 41  1  0  0  0  0
 20 42  1  0  0  0  0
 20 43  1  0  0  0  0
 21 44  1  0  0  0  0
M  CHG  1  23  -1
M  END
> <Hybrid2>
-6.099637985229492

> <Hybrid2>
-5.332558

$$$$
C40544717
  -OEChem-02152218503D

 28 29  0     1  0  0  0  0  0999 V2000
   13.2976  -27.3646  -12.1448 C   0  0  0  0  0  0  0  0  0  0  0  0
   12.9832  -27.4588   -9.7512 C   0  0  0  0  0  0  0  0  0  0  0  0
   11.1192  -26.9301  -11.1946 C   0  0  0  0  0  0  0  0  0  0  0  0
   13.8141  -27.5722  -10.8658 C   0  0  0  0  0  0  0  0  0  0  0  0
   11.9502  -27.0435  -12.3092 C   0  0  0  0  0  0  0  0  0  0  0  0
   11.6357  -27.1377   -9.9156 C   0  0  0  0  0  0  0  0  0  0  0  0
    5.5480  -26.3476  -10.0326 C   0  0  0  0  0  0  0  0  0  0  0  0
    8.6755  -26.9801  -10.5528 C   0  0  0  0  0  0  0  0  0  0  0  0
    6.5301  -24.9148   -8.2882 C   0  0  0  0  0  0  0  0  0  0  0  0
    8.3022  -24.4826  -10.1936 C   0  0  0  0  0  0  0  0  0  0  0  0
    6.7856  -26.1221   -9.1770 C   0  0  2  0  0  0  0  0  0  0  0  0
    7.9782  -25.8913   -9.9905 N   0  0  0  0  0  0  0  0  0  0  0  0
    9.7503  -26.6036  -11.3612 N   0  0  0  0  0  0  0  0  0  0  0  0
    5.2458  -25.3960  -10.8049 O   0  5  0  0  0  0  0  0  0  0  0  0
    4.9802  -27.4624   -9.8592 O   0  0  0  0  0  0  0  0  0  0  0  0
    8.3356  -28.1438  -10.3301 O   0  0  0  0  0  0  0  0  0  0  0  0
    7.1366  -23.4970   -9.2328 S   0  0  0  0  0  0  0  0  0  0  0  0
   15.4773  -27.9654  -10.6628 Cl  0  0  0  0  0  0  0  0  0  0  0  0
   11.3582  -26.7925  -13.9137 Cl  0  0  0  0  0  0  0  0  0  0  0  0
   10.6461  -27.0102   -8.5040 Cl  0  0  0  0  0  0  0  0  0  0  0  0
   13.9484  -27.4517  -13.0127 H   0  0  0  0  0  0  0  0  0  0  0  0
   13.3885  -27.6209   -8.7547 H   0  0  0  0  0  0  0  0  0  0  0  0
    5.4758  -24.7735   -8.0322 H   0  0  0  0  0  0  0  0  0  0  0  0
    7.1100  -24.9858   -7.3626 H   0  0  0  0  0  0  0  0  0  0  0  0
    9.3257  -24.2969   -9.8546 H   0  0  0  0  0  0  0  0  0  0  0  0
    8.2228  -24.2433  -11.2582 H   0  0  0  0  0  0  0  0  0  0  0  0
    6.9139  -27.0252   -8.5697 H   0  0  0  0  0  0  0  0  0  0  0  0
    9.5182  -26.0012  -12.2016 H   0  0  0  0  0  0  0  0  0  0  0  0
  1  4  1  0  0  0  0
  1  5  2  0  0  0  0
  2  4  2  0  0  0  0
  2  6  1  0  0  0  0
  3  5  1  0  0  0  0
  3  6  2  0  0  0  0
  3 13  1  0  0  0  0
  4 18  1  0  0  0  0
  5 19  1  0  0  0  0
  6 20  1  0  0  0  0
  7 11  1  0  0  0  0
  7 14  1  0  0  0  0
  7 15  2  0  0  0  0
  8 12  1  0  0  0  0
  8 13  1  0  0  0  0
  8 16  2  0  0  0  0
  9 11  1  0  0  0  0
  9 17  1  0  0  0  0
 10 12  1  0  0  0  0
 10 17  1  0  0  0  0
 11 12  1  0  0  0  0
  1 21  1  0  0  0  0
  2 22  1  0  0  0  0
  9 23  1  0  0  0  0
  9 24  1  0  0  0  0
 10 25  1  0  0  0  0
 10 26  1  0  0  0  0
 11 27  1  0  0  0  0
 13 28  1  0  0  0  0
M  CHG  1  14  -1
M  END
> <Hybrid2>
-4.100947856903076

> <Hybrid2>
-4.100948

$$$$
C40544717
  -OEChem-02152218503D

 28 29  0     1  0  0  0  0  0999 V2000
   12.6889  -26.9052  -13.0950 C   0  0  0  0  0  0  0  0  0  0  0  0
   12.9082  -26.9533  -10.6895 C   0  0  0  0  0  0  0  0  0  0  0  0
   10.7158  -26.8690  -11.7011 C   0  0  0  0  0  0  0  0  0  0  0  0
   13.4928  -26.9492  -11.9560 C   0  0  0  0  0  0  0  0  0  0  0  0
   11.3004  -26.8650  -12.9676 C   0  0  0  0  0  0  0  0  0  0  0  0
   11.5197  -26.9132  -10.5621 C   0  0  0  0  0  0  0  0  0  0  0  0
    5.5117  -27.3508   -9.3746 C   0  0  0  0  0  0  0  0  0  0  0  0
    8.5228  -27.3736  -10.5512 C   0  0  0  0  0  0  0  0  0  0  0  0
    6.5253  -25.6758   -7.8822 C   0  0  0  0  0  0  0  0  0  0  0  0
    7.7338  -24.9861  -10.1230 C   0  0  0  0  0  0  0  0  0  0  0  0
    6.8288  -26.8468   -8.8038 C   0  0  2  0  0  0  0  0  0  0  0  0
    7.7525  -26.4207   -9.8539 N   0  0  0  0  0  0  0  0  0  0  0  0
    9.3052  -26.8280  -11.5713 N   0  0  0  0  0  0  0  0  0  0  0  0
    4.8678  -26.5132  -10.0653 O   0  5  0  0  0  0  0  0  0  0  0  0
    5.2311  -28.5472   -9.0826 O   0  0  0  0  0  0  0  0  0  0  0  0
    8.4805  -28.5706  -10.2598 O   0  0  0  0  0  0  0  0  0  0  0  0
    6.6198  -24.2093   -8.9361 S   0  0  0  0  0  0  0  0  0  0  0  0
   15.2060  -26.9957  -12.1131 Cl  0  0  0  0  0  0  0  0  0  0  0  0
   10.3473  -26.8078  -14.4085 Cl  0  0  0  0  0  0  0  0  0  0  0  0
   10.8427  -26.9216   -8.9715 Cl  0  0  0  0  0  0  0  0  0  0  0  0
   13.1474  -26.9000  -14.0820 H   0  0  0  0  0  0  0  0  0  0  0  0
   13.5374  -26.9874   -9.8026 H   0  0  0  0  0  0  0  0  0  0  0  0
    5.5417  -25.7350   -7.4067 H   0  0  0  0  0  0  0  0  0  0  0  0
    7.2882  -25.5893   -7.1020 H   0  0  0  0  0  0  0  0  0  0  0  0
    8.7461  -24.5865  -10.0111 H   0  0  0  0  0  0  0  0  0  0  0  0
    7.3864  -24.8149  -11.1462 H   0  0  0  0  0  0  0  0  0  0  0  0
    7.2620  -27.6787   -8.2371 H   0  0  0  0  0  0  0  0  0  0  0  0
    8.7850  -26.3214  -12.3432 H   0  0  0  0  0  0  0  0  0  0  0  0
  1  4  1  0  0  0  0
  1  5  2  0  0  0  0
  2  4  2  0  0  0  0
  2  6  1  0  0  0  0
  3  5  1  0  0  0  0
  3  6  2  0  0  0  0
  3 13  1  0  0  0  0
  4 18  1  0  0  0  0
  5 19  1  0  0  0  0
  6 20  1  0  0  0  0
  7 11  1  0  0  0  0
  7 14  1  0  0  0  0
  7 15  2  0  0  0  0
  8 12  1  0  0  0  0
  8 13  1  0  0  0  0
  8 16  2  0  0  0  0
  9 11  1  0  0  0  0
  9 17  1  0  0  0  0
 10 12  1  0  0  0  0
 10 17  1  0  0  0  0
 11 12  1  0  0  0  0
  1 21  1  0  0  0  0
  2 22  1  0  0  0  0
  9 23  1  0  0  0  0
  9 24  1  0  0  0  0
 10 25  1  0  0  0  0
 10 26  1  0  0  0  0
 11 27  1  0  0  0  0
 13 28  1  0  0  0  0
M  CHG  1  14  -1
M  END
> <Hybrid2>
-4.100947856903076

> <Hybrid2>
-3.768507

$$$$
C40550220
  -OEChem-02152218503D

 39 41  0     1  0  0  0  0  0999 V2000
   12.8646  -26.0135  -11.7127 C   0  0  0  0  0  0  0  0  0  0  0  0
   13.5036  -27.1331  -11.2225 C   0  0  0  0  0  0  0  0  0  0  0  0
   11.1660  -26.9354  -10.6760 C   0  0  0  0  0  0  0  0  0  0  0  0
    5.4334  -25.8896  -10.0432 C   0  0  0  0  0  0  0  0  0  0  0  0
    8.7169  -26.4625  -10.2663 C   0  0  0  0  0  0  0  0  0  0  0  0
    6.4392  -31.0577   -8.6499 C   0  0  0  0  0  0  0  0  0  0  0  0
    7.7910  -30.8815   -9.3587 C   0  0  0  0  0  0  0  0  0  0  0  0
    6.0379  -29.8431   -7.8007 C   0  0  0  0  0  0  0  0  0  0  0  0
    7.9329  -29.5374  -10.0958 C   0  0  0  0  0  0  0  0  0  0  0  0
    5.8344  -27.2484   -8.0221 C   0  0  0  0  0  0  0  0  0  0  0  0
    6.4837  -26.2752   -9.0173 C   0  0  1  0  0  0  0  0  0  0  0  0
    6.1498  -28.5947   -8.6563 C   0  0  1  0  0  0  0  0  0  0  0  0
    7.5919  -28.4044   -9.1319 C   0  0  2  0  0  0  0  0  0  0  0  0
   14.9087  -27.5593  -11.3695 C   0  0  0  0  0  0  0  0  0  0  0  0
   11.5240  -25.8987  -11.4007 N   0  0  0  0  0  0  0  0  0  0  0  0
    7.6082  -27.0239   -9.6091 N   0  0  0  0  0  0  0  0  0  0  0  0
    9.8843  -27.2189  -10.1424 N   0  0  0  0  0  0  0  0  0  0  0  0
    4.9428  -26.8497  -10.6994 O   0  5  0  0  0  0  0  0  0  0  0  0
    5.1851  -24.6529  -10.1079 O   0  0  0  0  0  0  0  0  0  0  0  0
    8.6361  -25.3991  -10.8827 O   0  0  0  0  0  0  0  0  0  0  0  0
   12.3910  -28.0868  -10.3316 S   0  0  0  0  0  0  0  0  0  0  0  0
   13.3315  -25.2430  -12.3119 H   0  0  0  0  0  0  0  0  0  0  0  0
    5.6657  -31.2304   -9.4091 H   0  0  0  0  0  0  0  0  0  0  0  0
    6.4675  -31.9543   -8.0204 H   0  0  0  0  0  0  0  0  0  0  0  0
    8.5900  -30.9580   -8.6101 H   0  0  0  0  0  0  0  0  0  0  0  0
    7.9434  -31.7046  -10.0661 H   0  0  0  0  0  0  0  0  0  0  0  0
    5.0129  -29.9672   -7.4345 H   0  0  0  0  0  0  0  0  0  0  0  0
    6.6912  -29.7714   -6.9229 H   0  0  0  0  0  0  0  0  0  0  0  0
    8.9581  -29.4529  -10.4681 H   0  0  0  0  0  0  0  0  0  0  0  0
    7.2646  -29.5205  -10.9651 H   0  0  0  0  0  0  0  0  0  0  0  0
    6.3115  -27.1612   -7.0386 H   0  0  0  0  0  0  0  0  0  0  0  0
    4.7565  -27.1006   -7.9007 H   0  0  0  0  0  0  0  0  0  0  0  0
    6.8393  -25.3740   -8.5099 H   0  0  0  0  0  0  0  0  0  0  0  0
    5.4843  -28.7194   -9.5245 H   0  0  0  0  0  0  0  0  0  0  0  0
    8.2909  -28.4332   -8.2838 H   0  0  0  0  0  0  0  0  0  0  0  0
   15.5331  -27.1593  -10.5536 H   0  0  0  0  0  0  0  0  0  0  0  0
   15.0113  -28.6580  -11.3618 H   0  0  0  0  0  0  0  0  0  0  0  0
   15.3469  -27.2195  -12.3238 H   0  0  0  0  0  0  0  0  0  0  0  0
    9.8187  -28.1255   -9.5788 H   0  0  0  0  0  0  0  0  0  0  0  0
  1  2  2  0  0  0  0
  1 15  1  0  0  0  0
  2 14  1  0  0  0  0
  2 21  1  0  0  0  0
  3 15  2  0  0  0  0
  3 17  1  0  0  0  0
  3 21  1  0  0  0  0
  4 11  1  0  0  0  0
  4 18  1  0  0  0  0
  4 19  2  0  0  0  0
  5 16  1  0  0  0  0
  5 17  1  0  0  0  0
  5 20  2  0  0  0  0
  6  7  1  0  0  0  0
  6  8  1  0  0  0  0
  7  9  1  0  0  0  0
  8 12  1  0  0  0  0
  9 13  1  0  0  0  0
 10 11  1  0  0  0  0
 10 12  1  0  0  0  0
 11 16  1  0  0  0  0
 12 13  1  0  0  0  0
 13 16  1  0  0  0  0
  1 22  1  0  0  0  0
  6 23  1  0  0  0  0
  6 24  1  0  0  0  0
  7 25  1  0  0  0  0
  7 26  1  0  0  0  0
  8 27  1  0  0  0  0
  8 28  1  0  0  0  0
  9 29  1  0  0  0  0
  9 30  1  0  0  0  0
 10 31  1  0  0  0  0
 10 32  1  0  0  0  0
 11 33  1  0  0  0  0
 12 34  1  0  0  0  0
 13 35  1  0  0  0  0
 14 36  1  0  0  0  0
 14 37  1  0  0  0  0
 14 38  1  0  0  0  0
 17 39  1  0  0  0  0
M  CHG  1  18  -1
M  END
> <Hybrid2>
-5.369157314300537

> <Hybrid2>
-5.369157

$$$$
C40550220
  -OEChem-02152218503D

 39 41  0     1  0  0  0  0  0999 V2000
   13.1004  -26.4102  -11.8379 C   0  0  0  0  0  0  0  0  0  0  0  0
   13.6094  -27.4605  -11.1030 C   0  0  0  0  0  0  0  0  0  0  0  0
   11.2751  -26.9742  -10.7607 C   0  0  0  0  0  0  0  0  0  0  0  0
    5.6373  -25.3708  -10.7205 C   0  0  0  0  0  0  0  0  0  0  0  0
    8.8620  -26.2366  -10.6119 C   0  0  0  0  0  0  0  0  0  0  0  0
    6.0969  -30.2329   -8.3096 C   0  0  0  0  0  0  0  0  0  0  0  0
    7.4929  -30.3064   -8.9473 C   0  0  0  0  0  0  0  0  0  0  0  0
    5.7661  -28.8482   -7.7345 C   0  0  0  0  0  0  0  0  0  0  0  0
    7.7934  -29.1470   -9.9146 C   0  0  0  0  0  0  0  0  0  0  0  0
    5.8114  -26.3382   -8.4564 C   0  0  0  0  0  0  0  0  0  0  0  0
    6.5956  -25.6322   -9.5725 C   0  0  1  0  0  0  0  0  0  0  0  0
    6.0340  -27.8030   -8.8017 C   0  0  1  0  0  0  0  0  0  0  0  0
    7.5093  -27.8246   -9.2077 C   0  0  2  0  0  0  0  0  0  0  0  0
   14.9753  -28.0179  -11.0728 C   0  0  0  0  0  0  0  0  0  0  0  0
   11.7619  -26.1302  -11.6432 N   0  0  0  0  0  0  0  0  0  0  0  0
    7.6753  -26.5691   -9.9356 N   0  0  0  0  0  0  0  0  0  0  0  0
    9.9479  -27.0452  -10.2695 N   0  0  0  0  0  0  0  0  0  0  0  0
    5.0946  -26.3979  -11.2141 O   0  5  0  0  0  0  0  0  0  0  0  0
    5.5064  -24.1546  -11.0346 O   0  0  0  0  0  0  0  0  0  0  0  0
    8.9094  -25.3104  -11.4226 O   0  0  0  0  0  0  0  0  0  0  0  0
   12.3713  -28.1308  -10.1237 S   0  0  0  0  0  0  0  0  0  0  0  0
   13.6649  -25.8107  -12.5397 H   0  0  0  0  0  0  0  0  0  0  0  0
    5.3498  -30.4876   -9.0720 H   0  0  0  0  0  0  0  0  0  0  0  0
    6.0119  -30.9892   -7.5211 H   0  0  0  0  0  0  0  0  0  0  0  0
    8.2431  -30.2994   -8.1463 H   0  0  0  0  0  0  0  0  0  0  0  0
    7.6047  -31.2609   -9.4743 H   0  0  0  0  0  0  0  0  0  0  0  0
    4.7170  -28.8164   -7.4205 H   0  0  0  0  0  0  0  0  0  0  0  0
    6.3785  -28.6595   -6.8447 H   0  0  0  0  0  0  0  0  0  0  0  0
    8.8393  -29.2186  -10.2271 H   0  0  0  0  0  0  0  0  0  0  0  0
    7.1736  -29.2462  -10.8139 H   0  0  0  0  0  0  0  0  0  0  0  0
    6.2448  -26.0999   -7.4777 H   0  0  0  0  0  0  0  0  0  0  0  0
    4.7467  -26.0841   -8.4372 H   0  0  0  0  0  0  0  0  0  0  0  0
    7.0061  -24.6809   -9.2225 H   0  0  0  0  0  0  0  0  0  0  0  0
    5.4041  -28.0406   -9.6728 H   0  0  0  0  0  0  0  0  0  0  0  0
    8.1596  -27.7437   -8.3248 H   0  0  0  0  0  0  0  0  0  0  0  0
   15.5920  -27.5181  -10.3077 H   0  0  0  0  0  0  0  0  0  0  0  0
   14.9768  -29.0988  -10.8502 H   0  0  0  0  0  0  0  0  0  0  0  0
   15.4898  -27.9063  -12.0429 H   0  0  0  0  0  0  0  0  0  0  0  0
    9.7719  -27.8167   -9.5500 H   0  0  0  0  0  0  0  0  0  0  0  0
  1  2  2  0  0  0  0
  1 15  1  0  0  0  0
  2 14  1  0  0  0  0
  2 21  1  0  0  0  0
  3 15  2  0  0  0  0
  3 17  1  0  0  0  0
  3 21  1  0  0  0  0
  4 11  1  0  0  0  0
  4 18  1  0  0  0  0
  4 19  2  0  0  0  0
  5 16  1  0  0  0  0
  5 17  1  0  0  0  0
  5 20  2  0  0  0  0
  6  7  1  0  0  0  0
  6  8  1  0  0  0  0
  7  9  1  0  0  0  0
  8 12  1  0  0  0  0
  9 13  1  0  0  0  0
 10 11  1  0  0  0  0
 10 12  1  0  0  0  0
 11 16  1  0  0  0  0
 12 13  1  0  0  0  0
 13 16  1  0  0  0  0
  1 22  1  0  0  0  0
  6 23  1  0  0  0  0
  6 24  1  0  0  0  0
  7 25  1  0  0  0  0
  7 26  1  0  0  0  0
  8 27  1  0  0  0  0
  8 28  1  0  0  0  0
  9 29  1  0  0  0  0
  9 30  1  0  0  0  0
 10 31  1  0  0  0  0
 10 32  1  0  0  0  0
 11 33  1  0  0  0  0
 12 34  1  0  0  0  0
 13 35  1  0  0  0  0
 14 36  1  0  0  0  0
 14 37  1  0  0  0  0
 14 38  1  0  0  0  0
 17 39  1  0  0  0  0
M  CHG  1  18  -1
M  END
> <Hybrid2>
-5.369157314300537

> <Hybrid2>
-5.038454

$$$$
C40566276
  -OEChem-02152218503D

 34 35  0     1  0  0  0  0  0999 V2000
    8.3771  -28.0346  -10.0334 C   0  0  0  0  0  0  0  0  0  0  0  0
    6.4979  -26.2205   -9.0533 C   0  0  0  0  0  0  0  0  0  0  0  0
    7.2892  -28.4911   -9.2894 C   0  0  0  0  0  0  0  0  0  0  0  0
    8.5256  -26.6710  -10.2873 C   0  0  0  0  0  0  0  0  0  0  0  0
    6.3495  -27.5840   -8.7994 C   0  0  0  0  0  0  0  0  0  0  0  0
    7.5859  -25.7640   -9.7973 C   0  0  0  0  0  0  0  0  0  0  0  0
    7.1351  -29.9305   -9.0232 C   0  0  0  0  0  0  0  0  0  0  0  0
   10.6583  -26.9729  -11.6053 C   0  0  0  0  0  0  0  0  0  0  0  0
   13.6176  -26.2265  -13.4677 C   0  0  0  0  0  0  0  0  0  0  0  0
   14.9285  -26.9125  -13.8190 C   0  0  0  0  0  0  0  0  0  0  0  0
   14.2154  -26.9855  -11.2278 C   0  0  0  0  0  0  0  0  0  0  0  0
   13.0772  -26.9473  -12.2383 C   0  0  1  0  0  0  0  0  0  0  0  0
   12.0738  -24.9045  -11.2743 C   0  0  0  0  0  0  0  0  0  0  0  0
    9.6318  -26.2097  -11.0433 N   0  0  0  0  0  0  0  0  0  0  0  0
   11.9084  -26.2993  -11.7069 N   0  0  0  0  0  0  0  0  0  0  0  0
    8.0179  -30.7446   -9.4885 O   0  5  0  0  0  0  0  0  0  0  0  0
    6.1224  -30.3284   -8.3343 O   0  0  0  0  0  0  0  0  0  0  0  0
   10.5326  -28.1434  -11.9718 O   0  0  0  0  0  0  0  0  0  0  0  0
    5.2998  -28.0120   -8.0838 F   0  0  0  0  0  0  0  0  0  0  0  0
    7.7186  -24.4512  -10.0347 F   0  0  0  0  0  0  0  0  0  0  0  0
   15.7023  -27.2997  -12.2236 S   0  0  0  0  0  0  0  0  0  0  0  0
    9.1095  -28.7426  -10.4154 H   0  0  0  0  0  0  0  0  0  0  0  0
    5.7664  -25.5144   -8.6719 H   0  0  0  0  0  0  0  0  0  0  0  0
   13.7957  -25.1646  -13.2506 H   0  0  0  0  0  0  0  0  0  0  0  0
   12.9178  -26.2759  -14.3091 H   0  0  0  0  0  0  0  0  0  0  0  0
   14.7502  -27.8473  -14.3596 H   0  0  0  0  0  0  0  0  0  0  0  0
   15.5749  -26.2729  -14.4257 H   0  0  0  0  0  0  0  0  0  0  0  0
   14.3423  -26.0255  -10.7163 H   0  0  0  0  0  0  0  0  0  0  0  0
   14.0763  -27.7705  -10.4788 H   0  0  0  0  0  0  0  0  0  0  0  0
   12.7722  -27.9671  -12.5057 H   0  0  0  0  0  0  0  0  0  0  0  0
   12.3676  -24.8811  -10.2145 H   0  0  0  0  0  0  0  0  0  0  0  0
   12.8540  -24.4224  -11.8817 H   0  0  0  0  0  0  0  0  0  0  0  0
   11.1235  -24.3657  -11.4032 H   0  0  0  0  0  0  0  0  0  0  0  0
    9.6846  -25.2074  -11.1942 H   0  0  0  0  0  0  0  0  0  0  0  0
  1  3  2  0  0  0  0
  1  4  1  0  0  0  0
  2  5  2  0  0  0  0
  2  6  1  0  0  0  0
  3  5  1  0  0  0  0
  3  7  1  0  0  0  0
  4  6  2  0  0  0  0
  4 14  1  0  0  0  0
  5 19  1  0  0  0  0
  6 20  1  0  0  0  0
  7 16  1  0  0  0  0
  7 17  2  0  0  0  0
  8 14  1  0  0  0  0
  8 15  1  0  0  0  0
  8 18  2  0  0  0  0
  9 10  1  0  0  0  0
  9 12  1  0  0  0  0
 10 21  1  0  0  0  0
 11 12  1  0  0  0  0
 11 21  1  0  0  0  0
 12 15  1  0  0  0  0
 13 15  1  0  0  0  0
  1 22  1  0  0  0  0
  2 23  1  0  0  0  0
  9 24  1  0  0  0  0
  9 25  1  0  0  0  0
 10 26  1  0  0  0  0
 10 27  1  0  0  0  0
 11 28  1  0  0  0  0
 11 29  1  0  0  0  0
 12 30  1  0  0  0  0
 13 31  1  0  0  0  0
 13 32  1  0  0  0  0
 13 33  1  0  0  0  0
 14 34  1  0  0  0  0
M  CHG  1  16  -1
M  END
> <Hybrid2>
-3.036180019378662

> <Hybrid2>
-3.036180

$$$$
C40566276
  -OEChem-02152218503D

 34 35  0     1  0  0  0  0  0999 V2000
    8.2207  -28.0223  -10.0334 C   0  0  0  0  0  0  0  0  0  0  0  0
    6.3415  -26.2082   -9.0533 C   0  0  0  0  0  0  0  0  0  0  0  0
    7.1327  -28.4787   -9.2894 C   0  0  0  0  0  0  0  0  0  0  0  0
    8.3691  -26.6587  -10.2873 C   0  0  0  0  0  0  0  0  0  0  0  0
    6.1931  -27.5717   -8.7994 C   0  0  0  0  0  0  0  0  0  0  0  0
    7.4295  -25.7517   -9.7973 C   0  0  0  0  0  0  0  0  0  0  0  0
    6.9787  -29.9182   -9.0232 C   0  0  0  0  0  0  0  0  0  0  0  0
   10.5018  -26.9606  -11.6053 C   0  0  0  0  0  0  0  0  0  0  0  0
   13.4612  -26.2141  -13.4677 C   0  0  0  0  0  0  0  0  0  0  0  0
   14.7720  -26.9002  -13.8190 C   0  0  0  0  0  0  0  0  0  0  0  0
   14.0590  -26.9732  -11.2278 C   0  0  0  0  0  0  0  0  0  0  0  0
   12.9207  -26.9350  -12.2383 C   0  0  1  0  0  0  0  0  0  0  0  0
   11.9174  -24.8922  -11.2743 C   0  0  0  0  0  0  0  0  0  0  0  0
    9.4753  -26.1974  -11.0433 N   0  0  0  0  0  0  0  0  0  0  0  0
   11.7520  -26.2870  -11.7069 N   0  0  0  0  0  0  0  0  0  0  0  0
    7.8614  -30.7323   -9.4885 O   0  5  0  0  0  0  0  0  0  0  0  0
    5.9660  -30.3161   -8.3343 O   0  0  0  0  0  0  0  0  0  0  0  0
   10.3762  -28.1311  -11.9718 O   0  0  0  0  0  0  0  0  0  0  0  0
    5.1434  -27.9997   -8.0838 F   0  0  0  0  0  0  0  0  0  0  0  0
    7.5622  -24.4389  -10.0347 F   0  0  0  0  0  0  0  0  0  0  0  0
   15.5458  -27.2874  -12.2236 S   0  0  0  0  0  0  0  0  0  0  0  0
    8.9531  -28.7303  -10.4154 H   0  0  0  0  0  0  0  0  0  0  0  0
    5.6100  -25.5021   -8.6719 H   0  0  0  0  0  0  0  0  0  0  0  0
   13.6392  -25.1523  -13.2506 H   0  0  0  0  0  0  0  0  0  0  0  0
   12.7614  -26.2636  -14.3091 H   0  0  0  0  0  0  0  0  0  0  0  0
   14.5937  -27.8350  -14.3596 H   0  0  0  0  0  0  0  0  0  0  0  0
   15.4185  -26.2605  -14.4257 H   0  0  0  0  0  0  0  0  0  0  0  0
   14.1859  -26.0132  -10.7163 H   0  0  0  0  0  0  0  0  0  0  0  0
   13.9199  -27.7582  -10.4788 H   0  0  0  0  0  0  0  0  0  0  0  0
   12.6157  -27.9548  -12.5057 H   0  0  0  0  0  0  0  0  0  0  0  0
   12.2112  -24.8688  -10.2145 H   0  0  0  0  0  0  0  0  0  0  0  0
   12.6975  -24.4101  -11.8817 H   0  0  0  0  0  0  0  0  0  0  0  0
   10.9671  -24.3533  -11.4032 H   0  0  0  0  0  0  0  0  0  0  0  0
    9.5281  -25.1951  -11.1942 H   0  0  0  0  0  0  0  0  0  0  0  0
  1  3  2  0  0  0  0
  1  4  1  0  0  0  0
  2  5  2  0  0  0  0
  2  6  1  0  0  0  0
  3  5  1  0  0  0  0
  3  7  1  0  0  0  0
  4  6  2  0  0  0  0
  4 14  1  0  0  0  0
  5 19  1  0  0  0  0
  6 20  1  0  0  0  0
  7 16  1  0  0  0  0
  7 17  2  0  0  0  0
  8 14  1  0  0  0  0
  8 15  1  0  0  0  0
  8 18  2  0  0  0  0
  9 10  1  0  0  0  0
  9 12  1  0  0  0  0
 10 21  1  0  0  0  0
 11 12  1  0  0  0  0
 11 21  1  0  0  0  0
 12 15  1  0  0  0  0
 13 15  1  0  0  0  0
  1 22  1  0  0  0  0
  2 23  1  0  0  0  0
  9 24  1  0  0  0  0
  9 25  1  0  0  0  0
 10 26  1  0  0  0  0
 10 27  1  0  0  0  0
 11 28  1  0  0  0  0
 11 29  1  0  0  0  0
 12 30  1  0  0  0  0
 13 31  1  0  0  0  0
 13 32  1  0  0  0  0
 13 33  1  0  0  0  0
 14 34  1  0  0  0  0
M  CHG  1  16  -1
M  END
> <Hybrid2>
-3.036180019378662

> <Hybrid2>
-3.035002

$$$$
C43460822
  -OEChem-02152218503D

 35 37  0     0  0  0  0  0  0999 V2000
   12.8215  -27.1847  -11.6941 C   0  0  0  0  0  0  0  0  0  0  0  0
   13.2177  -25.0566  -12.7324 C   0  0  0  0  0  0  0  0  0  0  0  0
   11.7161  -26.5664  -11.1198 C   0  0  0  0  0  0  0  0  0  0  0  0
   13.5911  -26.3812  -12.5311 C   0  0  0  0  0  0  0  0  0  0  0  0
   11.4055  -25.2344  -11.3690 C   0  0  0  0  0  0  0  0  0  0  0  0
    9.8978  -25.9320  -10.0387 C   0  0  0  0  0  0  0  0  0  0  0  0
    7.6342  -23.2709   -9.1862 C   0  0  0  0  0  0  0  0  0  0  0  0
    6.6102  -27.9584  -10.4586 C   0  0  0  0  0  0  0  0  0  0  0  0
    5.9616  -27.5505   -9.1359 C   0  0  0  0  0  0  0  0  0  0  0  0
    7.1795  -26.6785  -11.0661 C   0  0  0  0  0  0  0  0  0  0  0  0
    6.1711  -26.0435   -9.0058 C   0  0  0  0  0  0  0  0  0  0  0  0
    7.3975  -25.7345   -9.8755 C   0  0  0  0  0  0  0  0  0  0  0  0
    8.7041  -26.0626   -9.1349 C   0  0  0  0  0  0  0  0  0  0  0  0
    7.4214  -24.2693  -10.3155 C   0  0  0  0  0  0  0  0  0  0  0  0
   12.1455  -24.4398  -12.1818 N   0  0  0  0  0  0  0  0  0  0  0  0
   10.2743  -24.8541  -10.6916 N   0  0  0  0  0  0  0  0  0  0  0  0
   10.7354  -26.9909  -10.2653 N   0  0  0  0  0  0  0  0  0  0  0  0
    6.7709  -23.2433   -8.2668 O   0  5  0  0  0  0  0  0  0  0  0  0
    8.6838  -22.5775   -9.3213 O   0  0  0  0  0  0  0  0  0  0  0  0
   15.1226  -27.0846  -13.3799 Br  0  0  0  0  0  0  0  0  0  0  0  0
   13.0592  -28.2236  -11.4964 H   0  0  0  0  0  0  0  0  0  0  0  0
   13.8032  -24.4099  -13.3816 H   0  0  0  0  0  0  0  0  0  0  0  0
    7.3934  -28.7090  -10.3109 H   0  0  0  0  0  0  0  0  0  0  0  0
    5.8582  -28.3985  -11.1234 H   0  0  0  0  0  0  0  0  0  0  0  0
    4.8922  -27.7899   -9.1545 H   0  0  0  0  0  0  0  0  0  0  0  0
    6.3990  -28.0866   -8.2874 H   0  0  0  0  0  0  0  0  0  0  0  0
    8.1345  -26.9102  -11.5549 H   0  0  0  0  0  0  0  0  0  0  0  0
    6.5147  -26.2598  -11.8288 H   0  0  0  0  0  0  0  0  0  0  0  0
    5.2805  -25.4816   -9.3058 H   0  0  0  0  0  0  0  0  0  0  0  0
    6.3732  -25.8020   -7.9544 H   0  0  0  0  0  0  0  0  0  0  0  0
    8.6465  -27.0782   -8.7331 H   0  0  0  0  0  0  0  0  0  0  0  0
    8.8094  -25.3950   -8.2748 H   0  0  0  0  0  0  0  0  0  0  0  0
    6.4735  -24.0501  -10.8063 H   0  0  0  0  0  0  0  0  0  0  0  0
    8.2206  -24.1506  -11.0468 H   0  0  0  0  0  0  0  0  0  0  0  0
   10.6468  -27.9185   -9.8715 H   0  0  0  0  0  0  0  0  0  0  0  0
  1  3  2  0  0  0  0
  1  4  1  0  0  0  0
  2  4  2  0  0  0  0
  2 15  1  0  0  0  0
  3  5  1  0  0  0  0
  3 17  1  0  0  0  0
  4 20  1  0  0  0  0
  5 15  2  0  0  0  0
  5 16  1  0  0  0  0
  6 13  1  0  0  0  0
  6 16  2  0  0  0  0
  6 17  1  0  0  0  0
  7 14  1  0  0  0  0
  7 18  1  0  0  0  0
  7 19  2  0  0  0  0
  8  9  1  0  0  0  0
  8 10  1  0  0  0  0
  9 11  1  0  0  0  0
 10 12  1  0  0  0  0
 11 12  1  0  0  0  0
 12 13  1  0  0  0  0
 12 14  1  0  0  0  0
  1 21  1  0  0  0  0
  2 22  1  0  0  0  0
  8 23  1  0  0  0  0
  8 24  1  0  0  0  0
  9 25  1  0  0  0  0
  9 26  1  0  0  0  0
 10 27  1  0  0  0  0
 10 28  1  0  0  0  0
 11 29  1  0  0  0  0
 11 30  1  0  0  0  0
 13 31  1  0  0  0  0
 13 32  1  0  0  0  0
 14 33  1  0  0  0  0
 14 34  1  0  0  0  0
 17 35  1  0  0  0  0
M  CHG  1  18  -1
M  END
> <Hybrid2>
-3.377664566040039

> <Hybrid2>
-3.377665

$$$$
C43460822
  -OEChem-02152218503D

 35 37  0     0  0  0  0  0  0999 V2000
   13.3656  -27.4270   -9.3772 C   0  0  0  0  0  0  0  0  0  0  0  0
   13.4815  -27.3518  -11.7740 C   0  0  0  0  0  0  0  0  0  0  0  0
   12.0439  -27.0289   -9.5460 C   0  0  0  0  0  0  0  0  0  0  0  0
   14.0980  -27.5897  -10.5501 C   0  0  0  0  0  0  0  0  0  0  0  0
   11.4961  -26.8098  -10.8049 C   0  0  0  0  0  0  0  0  0  0  0  0
    9.9278  -26.4088   -9.4233 C   0  0  0  0  0  0  0  0  0  0  0  0
    6.4486  -24.9830  -10.5255 C   0  0  0  0  0  0  0  0  0  0  0  0
    6.6794  -29.2539   -9.2847 C   0  0  0  0  0  0  0  0  0  0  0  0
    5.6698  -28.3995   -8.5184 C   0  0  0  0  0  0  0  0  0  0  0  0
    7.9537  -28.4187   -9.3864 C   0  0  0  0  0  0  0  0  0  0  0  0
    6.3823  -27.0891   -8.1917 C   0  0  0  0  0  0  0  0  0  0  0  0
    7.4887  -26.9626   -9.2480 C   0  0  0  0  0  0  0  0  0  0  0  0
    8.6219  -26.0522   -8.7704 C   0  0  0  0  0  0  0  0  0  0  0  0
    6.9330  -26.4253  -10.5769 C   0  0  0  0  0  0  0  0  0  0  0  0
   12.1969  -26.9643  -11.9558 N   0  0  0  0  0  0  0  0  0  0  0  0
   10.1820  -26.4256  -10.7136 N   0  0  0  0  0  0  0  0  0  0  0  0
   11.0194  -26.7657   -8.6781 N   0  0  0  0  0  0  0  0  0  0  0  0
    5.5046  -24.7167   -9.7322 O   0  5  0  0  0  0  0  0  0  0  0  0
    7.0774  -24.2148  -11.3099 O   0  0  0  0  0  0  0  0  0  0  0  0
   15.9055  -28.1261  -10.4759 Br  0  0  0  0  0  0  0  0  0  0  0  0
   13.7878  -27.5964   -8.3933 H   0  0  0  0  0  0  0  0  0  0  0  0
   14.0332  -27.4721  -12.7034 H   0  0  0  0  0  0  0  0  0  0  0  0
    6.8696  -30.2065   -8.7797 H   0  0  0  0  0  0  0  0  0  0  0  0
    6.2910  -29.4861  -10.2830 H   0  0  0  0  0  0  0  0  0  0  0  0
    4.7882  -28.2128   -9.1425 H   0  0  0  0  0  0  0  0  0  0  0  0
    5.3227  -28.9000   -7.6087 H   0  0  0  0  0  0  0  0  0  0  0  0
    8.6242  -28.6900   -8.5609 H   0  0  0  0  0  0  0  0  0  0  0  0
    8.4916  -28.6099  -10.3209 H   0  0  0  0  0  0  0  0  0  0  0  0
    5.6914  -26.2396   -8.1910 H   0  0  0  0  0  0  0  0  0  0  0  0
    6.8157  -27.1610   -7.1859 H   0  0  0  0  0  0  0  0  0  0  0  0
    8.7124  -26.1282   -7.6831 H   0  0  0  0  0  0  0  0  0  0  0  0
    8.3652  -25.0114   -8.9877 H   0  0  0  0  0  0  0  0  0  0  0  0
    6.1041  -27.0654  -10.8781 H   0  0  0  0  0  0  0  0  0  0  0  0
    7.7186  -26.5072  -11.3278 H   0  0  0  0  0  0  0  0  0  0  0  0
   11.0619  -26.8231   -7.6690 H   0  0  0  0  0  0  0  0  0  0  0  0
  1  3  2  0  0  0  0
  1  4  1  0  0  0  0
  2  4  2  0  0  0  0
  2 15  1  0  0  0  0
  3  5  1  0  0  0  0
  3 17  1  0  0  0  0
  4 20  1  0  0  0  0
  5 15  2  0  0  0  0
  5 16  1  0  0  0  0
  6 13  1  0  0  0  0
  6 16  2  0  0  0  0
  6 17  1  0  0  0  0
  7 14  1  0  0  0  0
  7 18  1  0  0  0  0
  7 19  2  0  0  0  0
  8  9  1  0  0  0  0
  8 10  1  0  0  0  0
  9 11  1  0  0  0  0
 10 12  1  0  0  0  0
 11 12  1  0  0  0  0
 12 13  1  0  0  0  0
 12 14  1  0  0  0  0
  1 21  1  0  0  0  0
  2 22  1  0  0  0  0
  8 23  1  0  0  0  0
  8 24  1  0  0  0  0
  9 25  1  0  0  0  0
  9 26  1  0  0  0  0
 10 27  1  0  0  0  0
 10 28  1  0  0  0  0
 11 29  1  0  0  0  0
 11 30  1  0  0  0  0
 13 31  1  0  0  0  0
 13 32  1  0  0  0  0
 14 33  1  0  0  0  0
 14 34  1  0  0  0  0
 17 35  1  0  0  0  0
M  CHG  1  18  -1
M  END
> <Hybrid2>
-3.377664566040039

> <Hybrid2>
-3.310683

$$$$
C14983243
  -OEChem-02152218503D

 17 18  0     0  0  0  0  0  0999 V2000
    6.9184  -27.8882   -8.5242 C   0  0  0  0  0  0  0  0  0  0  0  0
    8.6538  -28.6765  -10.0392 C   0  0  0  0  0  0  0  0  0  0  0  0
    8.2481  -26.3077   -9.8417 C   0  0  0  0  0  0  0  0  0  0  0  0
    7.2490  -26.5892   -8.9166 C   0  0  0  0  0  0  0  0  0  0  0  0
    8.9694  -27.3659  -10.4191 C   0  0  0  0  0  0  0  0  0  0  0  0
    7.6454  -28.9310   -9.1076 C   0  0  0  0  0  0  0  0  0  0  0  0
    8.2461  -24.8997   -9.9411 C   0  0  0  0  0  0  0  0  0  0  0  0
    7.3327  -24.3258   -9.1548 N   0  0  0  0  0  0  0  0  0  0  0  0
    6.7456  -25.3708   -8.5480 N   0  0  0  0  0  0  0  0  0  0  0  0
    9.9949  -27.1173  -11.3657 N   0  3  0  0  0  0  0  0  0  0  0  0
    9.0901  -24.1416  -10.7617 O   0  5  0  0  0  0  0  0  0  0  0  0
    9.7010  -27.0688  -12.5858 O   0  5  0  0  0  0  0  0  0  0  0  0
   11.1724  -26.9520  -10.9608 O   0  0  0  0  0  0  0  0  0  0  0  0
    7.2121  -30.8973   -8.5716 I   0  0  0  0  0  0  0  0  0  0  0  0
    6.1316  -28.0650   -7.7982 H   0  0  0  0  0  0  0  0  0  0  0  0
    9.2088  -29.5021  -10.4825 H   0  0  0  0  0  0  0  0  0  0  0  0
    6.0024  -25.1836   -7.8866 H   0  0  0  0  0  0  0  0  0  0  0  0
  1  4  2  0  0  0  0
  1  6  1  0  0  0  0
  2  5  1  0  0  0  0
  2  6  2  0  0  0  0
  3  4  1  0  0  0  0
  3  5  2  0  0  0  0
  3  7  1  0  0  0  0
  4  9  1  0  0  0  0
  5 10  1  0  0  0  0
  6 14  1  0  0  0  0
  7  8  2  0  0  0  0
  7 11  1  0  0  0  0
  8  9  1  0  0  0  0
 10 12  1  0  0  0  0
 10 13  2  0  0  0  0
  1 15  1  0  0  0  0
  2 16  1  0  0  0  0
  9 17  1  0  0  0  0
M  CHG  3  10   1  11  -1  12  -1
M  END
> <Hybrid2>
-6.613583564758301

> <Hybrid2>
-6.613584

$$$$
C14983243
  -OEChem-02152218503D

 17 18  0     0  0  0  0  0  0999 V2000
    6.9679  -27.8940   -8.5958 C   0  0  0  0  0  0  0  0  0  0  0  0
    8.7034  -28.6823  -10.1108 C   0  0  0  0  0  0  0  0  0  0  0  0
    8.2977  -26.3135   -9.9133 C   0  0  0  0  0  0  0  0  0  0  0  0
    7.2985  -26.5951   -8.9882 C   0  0  0  0  0  0  0  0  0  0  0  0
    9.0190  -27.3718  -10.4908 C   0  0  0  0  0  0  0  0  0  0  0  0
    7.6949  -28.9368   -9.1793 C   0  0  0  0  0  0  0  0  0  0  0  0
    8.2957  -24.9056  -10.0127 C   0  0  0  0  0  0  0  0  0  0  0  0
    7.3823  -24.3317   -9.2264 N   0  0  0  0  0  0  0  0  0  0  0  0
    6.7952  -25.3767   -8.6196 N   0  0  0  0  0  0  0  0  0  0  0  0
   10.0445  -27.1231  -11.4373 N   0  3  0  0  0  0  0  0  0  0  0  0
    9.1396  -24.1475  -10.8334 O   0  5  0  0  0  0  0  0  0  0  0  0
    9.7505  -27.0746  -12.6574 O   0  5  0  0  0  0  0  0  0  0  0  0
   11.2220  -26.9578  -11.0324 O   0  0  0  0  0  0  0  0  0  0  0  0
    7.2617  -30.9032   -8.6433 I   0  0  0  0  0  0  0  0  0  0  0  0
    6.1811  -28.0708   -7.8698 H   0  0  0  0  0  0  0  0  0  0  0  0
    9.2584  -29.5080  -10.5541 H   0  0  0  0  0  0  0  0  0  0  0  0
    6.0519  -25.1895   -7.9582 H   0  0  0  0  0  0  0  0  0  0  0  0
  1  4  2  0  0  0  0
  1  6  1  0  0  0  0
  2  5  1  0  0  0  0
  2  6  2  0  0  0  0
  3  4  1  0  0  0  0
  3  5  2  0  0  0  0
  3  7  1  0  0  0  0
  4  9  1  0  0  0  0
  5 10  1  0  0  0  0
  6 14  1  0  0  0  0
  7  8  2  0  0  0  0
  7 11  1  0  0  0  0
  8  9  1  0  0  0  0
 10 12  1  0  0  0  0
 10 13  2  0  0  0  0
  1 15  1  0  0  0  0
  2 16  1  0  0  0  0
  9 17  1  0  0  0  0
M  CHG  3  10   1  11  -1  12  -1
M  END
> <Hybrid2>
-6.613583564758301

> <Hybrid2>
-6.553454

$$$$
C49005116
  -OEChem-02152218503D

 27 28  0     0  0  0  0  0  0999 V2000
   11.1338  -26.7907  -12.9460 C   0  0  0  0  0  0  0  0  0  0  0  0
    5.9400  -27.3589   -8.3536 C   0  0  0  0  0  0  0  0  0  0  0  0
    5.5240  -28.6729   -7.9927 C   0  0  0  0  0  0  0  0  0  0  0  0
    8.5857  -24.0490  -10.2036 C   0  0  0  0  0  0  0  0  0  0  0  0
    7.1275  -27.3655   -9.0517 C   0  0  0  0  0  0  0  0  0  0  0  0
    9.3941  -25.0987  -10.5866 C   0  0  0  0  0  0  0  0  0  0  0  0
    6.4094  -29.6340   -8.4289 C   0  0  0  0  0  0  0  0  0  0  0  0
    7.8286  -26.2443   -9.5634 C   0  0  0  0  0  0  0  0  0  0  0  0
   11.4445  -26.1675  -11.6998 C   0  0  0  0  0  0  0  0  0  0  0  0
   10.6585  -24.9337  -11.3464 C   0  0  0  0  0  0  0  0  0  0  0  0
   12.4086  -26.5870  -10.8342 C   0  0  0  0  0  0  0  0  0  0  0  0
   13.0164  -28.9339  -11.7210 C   0  0  0  0  0  0  0  0  0  0  0  0
   10.8587  -27.2760  -13.9639 N   0  0  0  0  0  0  0  0  0  0  0  0
    8.9617  -26.3583  -10.2200 N   0  0  0  0  0  0  0  0  0  0  0  0
   13.2330  -27.6914  -11.0248 N   0  0  0  0  0  0  0  0  0  0  0  0
   12.7337  -26.0918   -9.7161 O   0  5  0  0  0  0  0  0  0  0  0  0
   11.0217  -23.8161  -11.6988 O   0  0  0  0  0  0  0  0  0  0  0  0
    7.2253  -24.6518   -9.3509 S   0  0  0  0  0  0  0  0  0  0  0  0
    7.7359  -28.9513   -9.2696 S   0  0  0  0  0  0  0  0  0  0  0  0
    6.3055  -31.3316   -8.2178 Cl  0  0  0  0  0  0  0  0  0  0  0  0
    5.3886  -26.4593   -8.1088 H   0  0  0  0  0  0  0  0  0  0  0  0
    4.6194  -28.8954   -7.4408 H   0  0  0  0  0  0  0  0  0  0  0  0
    8.7205  -22.9902  -10.3753 H   0  0  0  0  0  0  0  0  0  0  0  0
   12.0049  -28.9412  -12.1532 H   0  0  0  0  0  0  0  0  0  0  0  0
   13.7594  -29.0378  -12.5255 H   0  0  0  0  0  0  0  0  0  0  0  0
   13.1198  -29.7720  -11.0160 H   0  0  0  0  0  0  0  0  0  0  0  0
   14.1460  -27.5894  -10.5883 H   0  0  0  0  0  0  0  0  0  0  0  0
  1  9  1  0  0  0  0
  1 13  3  0  0  0  0
  2  3  1  0  0  0  0
  2  5  2  0  0  0  0
  3  7  2  0  0  0  0
  4  6  2  0  0  0  0
  4 18  1  0  0  0  0
  5  8  1  0  0  0  0
  5 19  1  0  0  0  0
  6 10  1  0  0  0  0
  6 14  1  0  0  0  0
  7 19  1  0  0  0  0
  7 20  1  0  0  0  0
  8 14  2  0  0  0  0
  8 18  1  0  0  0  0
  9 10  1  0  0  0  0
  9 11  2  0  0  0  0
 10 17  2  0  0  0  0
 11 15  1  0  0  0  0
 11 16  1  0  0  0  0
 12 15  1  0  0  0  0
  2 21  1  0  0  0  0
  3 22  1  0  0  0  0
  4 23  1  0  0  0  0
 12 24  1  0  0  0  0
 12 25  1  0  0  0  0
 12 26  1  0  0  0  0
 15 27  1  0  0  0  0
M  CHG  1  16  -1
M  END
> <Hybrid2>
-3.9130680561065674

> <Hybrid2>
-3.913068

$$$$
C49005116
  -OEChem-02152218503D

 27 28  0     0  0  0  0  0  0999 V2000
   10.1768  -26.0134  -12.7608 C   0  0  0  0  0  0  0  0  0  0  0  0
    5.1404  -27.3603   -9.0934 C   0  0  0  0  0  0  0  0  0  0  0  0
    4.6120  -28.6556   -8.8230 C   0  0  0  0  0  0  0  0  0  0  0  0
    8.3843  -24.0637   -9.4835 C   0  0  0  0  0  0  0  0  0  0  0  0
    6.5179  -27.3519   -9.0883 C   0  0  0  0  0  0  0  0  0  0  0  0
    9.1447  -25.1171   -9.9465 C   0  0  0  0  0  0  0  0  0  0  0  0
    5.6060  -29.5881   -8.6216 C   0  0  0  0  0  0  0  0  0  0  0  0
    7.3702  -26.2424   -9.3180 C   0  0  0  0  0  0  0  0  0  0  0  0
   10.9537  -25.9501  -11.5649 C   0  0  0  0  0  0  0  0  0  0  0  0
   10.5058  -24.9651  -10.5190 C   0  0  0  0  0  0  0  0  0  0  0  0
   12.0729  -26.6862  -11.3192 C   0  0  0  0  0  0  0  0  0  0  0  0
   12.6306  -27.6961  -13.6285 C   0  0  0  0  0  0  0  0  0  0  0  0
    9.5257  -26.0432  -13.7213 N   0  0  0  0  0  0  0  0  0  0  0  0
    8.5649  -26.3672   -9.8520 N   0  0  0  0  0  0  0  0  0  0  0  0
   12.6272  -27.6192  -12.1899 N   0  0  0  0  0  0  0  0  0  0  0  0
   12.8042  -26.6880  -10.2867 O   0  5  0  0  0  0  0  0  0  0  0  0
   11.2216  -24.0348  -10.1623 O   0  0  0  0  0  0  0  0  0  0  0  0
    6.8798  -24.6503   -8.9059 S   0  0  0  0  0  0  0  0  0  0  0  0
    7.1686  -28.9011   -8.7585 S   0  0  0  0  0  0  0  0  0  0  0  0
    5.4265  -31.2559   -8.2710 Cl  0  0  0  0  0  0  0  0  0  0  0  0
    4.5320  -26.4841   -9.2812 H   0  0  0  0  0  0  0  0  0  0  0  0
    3.5548  -28.8854   -8.7798 H   0  0  0  0  0  0  0  0  0  0  0  0
    8.6281  -23.0109   -9.4552 H   0  0  0  0  0  0  0  0  0  0  0  0
   12.0847  -26.8361  -14.0436 H   0  0  0  0  0  0  0  0  0  0  0  0
   13.6681  -27.6827  -13.9939 H   0  0  0  0  0  0  0  0  0  0  0  0
   12.1418  -28.6288  -13.9469 H   0  0  0  0  0  0  0  0  0  0  0  0
   13.1106  -28.3753  -11.7115 H   0  0  0  0  0  0  0  0  0  0  0  0
  1  9  1  0  0  0  0
  1 13  3  0  0  0  0
  2  3  1  0  0  0  0
  2  5  2  0  0  0  0
  3  7  2  0  0  0  0
  4  6  2  0  0  0  0
  4 18  1  0  0  0  0
  5  8  1  0  0  0  0
  5 19  1  0  0  0  0
  6 10  1  0  0  0  0
  6 14  1  0  0  0  0
  7 19  1  0  0  0  0
  7 20  1  0  0  0  0
  8 14  2  0  0  0  0
  8 18  1  0  0  0  0
  9 10  1  0  0  0  0
  9 11  2  0  0  0  0
 10 17  2  0  0  0  0
 11 15  1  0  0  0  0
 11 16  1  0  0  0  0
 12 15  1  0  0  0  0
  2 21  1  0  0  0  0
  3 22  1  0  0  0  0
  4 23  1  0  0  0  0
 12 24  1  0  0  0  0
 12 25  1  0  0  0  0
 12 26  1  0  0  0  0
 15 27  1  0  0  0  0
M  CHG  1  16  -1
M  END
> <Hybrid2>
-3.9130680561065674

> <Hybrid2>
-2.956822

$$$$
C49546771
  -OEChem-02152218503D

 29 30  0     1  0  0  0  0  0999 V2000
    7.4667  -30.3560   -9.4323 C   0  0  0  0  0  0  0  0  0  0  0  0
    8.3226  -30.1753  -10.5187 C   0  0  0  0  0  0  0  0  0  0  0  0
    7.0916  -29.2633   -8.6505 C   0  0  0  0  0  0  0  0  0  0  0  0
    8.8036  -28.9020  -10.8234 C   0  0  0  0  0  0  0  0  0  0  0  0
   12.5813  -27.4302  -10.8857 C   0  0  0  0  0  0  0  0  0  0  0  0
    7.5726  -27.9900   -8.9552 C   0  0  0  0  0  0  0  0  0  0  0  0
    8.4286  -27.8092  -10.0416 C   0  0  0  0  0  0  0  0  0  0  0  0
   11.5415  -26.5250  -10.9252 C   0  0  0  0  0  0  0  0  0  0  0  0
   12.8721  -26.6830  -12.9270 C   0  0  0  0  0  0  0  0  0  0  0  0
    7.5075  -27.0461   -6.6199 C   0  0  0  0  0  0  0  0  0  0  0  0
    7.1446  -26.8462   -8.0902 C   0  0  2  0  0  0  0  0  0  0  0  0
   13.3451  -27.5224  -12.0328 N   0  0  0  0  0  0  0  0  0  0  0  0
    8.9065  -26.5869  -10.3538 N   0  5  0  0  0  0  0  0  0  0  0  0
   10.7137  -26.6250   -8.5110 O   0  0  0  0  0  0  0  0  0  0  0  0
   10.3901  -24.5520   -9.7856 O   0  0  0  0  0  0  0  0  0  0  0  0
    5.7252  -26.6974   -8.1885 O   0  0  0  0  0  0  0  0  0  0  0  0
   11.5106  -25.7509  -12.4553 S   0  0  0  0  0  0  0  0  0  0  0  0
   10.2676  -26.0079   -9.7583 S   0  0  0  0  0  0  0  0  0  0  0  0
   13.5471  -26.4971  -14.4913 Cl  0  0  0  0  0  0  0  0  0  0  0  0
    7.0927  -31.3476   -9.1949 H   0  0  0  0  0  0  0  0  0  0  0  0
    8.6139  -31.0266  -11.1269 H   0  0  0  0  0  0  0  0  0  0  0  0
    6.4239  -29.4159   -7.8065 H   0  0  0  0  0  0  0  0  0  0  0  0
    9.4700  -28.7823  -11.6751 H   0  0  0  0  0  0  0  0  0  0  0  0
   12.8290  -28.0539  -10.0373 H   0  0  0  0  0  0  0  0  0  0  0  0
    7.0921  -27.9822   -6.2333 H   0  0  0  0  0  0  0  0  0  0  0  0
    7.1371  -26.2215   -6.0004 H   0  0  0  0  0  0  0  0  0  0  0  0
    8.5950  -27.0667   -6.4892 H   0  0  0  0  0  0  0  0  0  0  0  0
    7.5856  -25.8944   -8.4259 H   0  0  0  0  0  0  0  0  0  0  0  0
    5.4908  -25.9515   -7.6175 H   0  0  0  0  0  0  0  0  0  0  0  0
  1  2  1  0  0  0  0
  1  3  2  0  0  0  0
  2  4  2  0  0  0  0
  3  6  1  0  0  0  0
  4  7  1  0  0  0  0
  5  8  2  0  0  0  0
  5 12  1  0  0  0  0
  6  7  2  0  0  0  0
  6 11  1  0  0  0  0
  7 13  1  0  0  0  0
  8 17  1  0  0  0  0
  8 18  1  0  0  0  0
  9 12  2  0  0  0  0
  9 17  1  0  0  0  0
  9 19  1  0  0  0  0
 10 11  1  0  0  0  0
 11 16  1  0  0  0  0
 13 18  1  0  0  0  0
 14 18  2  0  0  0  0
 15 18  2  0  0  0  0
  1 20  1  0  0  0  0
  2 21  1  0  0  0  0
  3 22  1  0  0  0  0
  4 23  1  0  0  0  0
  5 24  1  0  0  0  0
 10 25  1  0  0  0  0
 10 26  1  0  0  0  0
 10 27  1  0  0  0  0
 11 28  1  0  0  0  0
 16 29  1  0  0  0  0
M  CHG  1  13  -1
M  END
> <Hybrid2>
-4.978428840637207

> <Hybrid2>
-4.978429

$$$$
C49546771
  -OEChem-02152218503D

 29 30  0     1  0  0  0  0  0999 V2000
    6.9017  -30.5920   -8.9305 C   0  0  0  0  0  0  0  0  0  0  0  0
    7.8377  -30.3933   -9.9453 C   0  0  0  0  0  0  0  0  0  0  0  0
    6.2846  -29.4966   -8.3265 C   0  0  0  0  0  0  0  0  0  0  0  0
    8.1568  -29.0990  -10.3561 C   0  0  0  0  0  0  0  0  0  0  0  0
   11.6593  -27.0594  -10.2408 C   0  0  0  0  0  0  0  0  0  0  0  0
    6.6036  -28.2023   -8.7373 C   0  0  0  0  0  0  0  0  0  0  0  0
    7.5398  -28.0035   -9.7520 C   0  0  0  0  0  0  0  0  0  0  0  0
   10.5085  -26.3407  -10.4881 C   0  0  0  0  0  0  0  0  0  0  0  0
   12.0633  -26.4955  -12.3214 C   0  0  0  0  0  0  0  0  0  0  0  0
    6.1392  -27.0392   -6.5508 C   0  0  0  0  0  0  0  0  0  0  0  0
    5.9177  -27.0563   -8.0621 C   0  0  2  0  0  0  0  0  0  0  0  0
   12.5519  -27.1496  -11.2911 N   0  0  0  0  0  0  0  0  0  0  0  0
    7.8642  -26.7606  -10.1642 N   0  5  0  0  0  0  0  0  0  0  0  0
    9.4396  -26.3153   -8.1685 O   0  0  0  0  0  0  0  0  0  0  0  0
    8.9587  -24.4669   -9.7107 O   0  0  0  0  0  0  0  0  0  0  0  0
    4.5119  -27.1467   -8.3111 O   0  0  0  0  0  0  0  0  0  0  0  0
   10.5352  -25.7475  -12.0971 S   0  0  0  0  0  0  0  0  0  0  0  0
    9.0498  -25.9126   -9.5181 S   0  0  0  0  0  0  0  0  0  0  0  0
   12.8744  -26.3710  -13.8261 Cl  0  0  0  0  0  0  0  0  0  0  0  0
    6.6537  -31.5997   -8.6105 H   0  0  0  0  0  0  0  0  0  0  0  0
    8.3175  -31.2468  -10.4153 H   0  0  0  0  0  0  0  0  0  0  0  0
    5.5564  -29.6634   -7.5369 H   0  0  0  0  0  0  0  0  0  0  0  0
    8.8893  -28.9655  -11.1495 H   0  0  0  0  0  0  0  0  0  0  0  0
   11.8998  -27.5425   -9.3033 H   0  0  0  0  0  0  0  0  0  0  0  0
    5.8257  -27.9833   -6.0940 H   0  0  0  0  0  0  0  0  0  0  0  0
    5.5844  -26.2234   -6.0740 H   0  0  0  0  0  0  0  0  0  0  0  0
    7.1964  -26.8724   -6.3167 H   0  0  0  0  0  0  0  0  0  0  0  0
    6.2484  -26.0873   -8.4681 H   0  0  0  0  0  0  0  0  0  0  0  0
    4.1077  -26.3915   -7.8598 H   0  0  0  0  0  0  0  0  0  0  0  0
  1  2  1  0  0  0  0
  1  3  2  0  0  0  0
  2  4  2  0  0  0  0
  3  6  1  0  0  0  0
  4  7  1  0  0  0  0
  5  8  2  0  0  0  0
  5 12  1  0  0  0  0
  6  7  2  0  0  0  0
  6 11  1  0  0  0  0
  7 13  1  0  0  0  0
  8 17  1  0  0  0  0
  8 18  1  0  0  0  0
  9 12  2  0  0  0  0
  9 17  1  0  0  0  0
  9 19  1  0  0  0  0
 10 11  1  0  0  0  0
 11 16  1  0  0  0  0
 13 18  1  0  0  0  0
 14 18  2  0  0  0  0
 15 18  2  0  0  0  0
  1 20  1  0  0  0  0
  2 21  1  0  0  0  0
  3 22  1  0  0  0  0
  4 23  1  0  0  0  0
  5 24  1  0  0  0  0
 10 25  1  0  0  0  0
 10 26  1  0  0  0  0
 10 27  1  0  0  0  0
 11 28  1  0  0  0  0
 16 29  1  0  0  0  0
M  CHG  1  13  -1
M  END
> <Hybrid2>
-4.978428840637207

> <Hybrid2>
-4.739305

$$$$
C17054335
  -OEChem-02152218503D

 31 33  0     0  0  0  0  0  0999 V2000
   12.2975  -27.0930  -10.8018 C   0  0  0  0  0  0  0  0  0  0  0  0
   11.8355  -25.9129  -12.7503 C   0  0  0  0  0  0  0  0  0  0  0  0
   11.3047  -26.4555  -11.6008 C   0  0  0  0  0  0  0  0  0  0  0  0
   13.5494  -27.0135  -11.3714 C   0  0  0  0  0  0  0  0  0  0  0  0
    5.5933  -30.6296   -8.1648 C   0  0  0  0  0  0  0  0  0  0  0  0
    4.4942  -29.7036   -8.0668 C   0  0  0  0  0  0  0  0  0  0  0  0
    6.8134  -30.2227   -8.5386 C   0  0  0  0  0  0  0  0  0  0  0  0
    4.6306  -28.4006   -8.3405 C   0  0  0  0  0  0  0  0  0  0  0  0
    7.0773  -28.8279   -8.8611 C   0  0  0  0  0  0  0  0  0  0  0  0
    8.2802  -28.3376   -9.2470 C   0  0  0  0  0  0  0  0  0  0  0  0
    5.9505  -27.8495   -8.7654 C   0  0  0  0  0  0  0  0  0  0  0  0
    7.2680  -26.0731   -9.4160 C   0  0  0  0  0  0  0  0  0  0  0  0
    9.8737  -26.3663  -11.2719 C   0  0  0  0  0  0  0  0  0  0  0  0
   14.8303  -27.5445  -10.8568 C   0  0  0  0  0  0  0  0  0  0  0  0
    6.0500  -26.5861   -9.0228 N   0  0  0  0  0  0  0  0  0  0  0  0
    8.3602  -26.9572   -9.5212 N   0  0  0  0  0  0  0  0  0  0  0  0
    9.5890  -26.4065   -9.9228 N   0  0  0  0  0  0  0  0  0  0  0  0
    9.3755  -28.9538   -9.4029 O   0  5  0  0  0  0  0  0  0  0  0  0
    9.0084  -26.2410  -12.1410 O   0  0  0  0  0  0  0  0  0  0  0  0
    7.3777  -24.4064   -9.7501 S   0  0  0  0  0  0  0  0  0  0  0  0
   13.5243  -26.1728  -12.8630 S   0  0  0  0  0  0  0  0  0  0  0  0
   12.1040  -27.5856   -9.8568 H   0  0  0  0  0  0  0  0  0  0  0  0
   11.3183  -25.3759  -13.5337 H   0  0  0  0  0  0  0  0  0  0  0  0
    5.4048  -31.6705   -7.9260 H   0  0  0  0  0  0  0  0  0  0  0  0
    3.5328  -30.0997   -7.7578 H   0  0  0  0  0  0  0  0  0  0  0  0
    7.6177  -30.9485   -8.6009 H   0  0  0  0  0  0  0  0  0  0  0  0
    3.7920  -27.7183   -8.2602 H   0  0  0  0  0  0  0  0  0  0  0  0
   15.0031  -28.5718  -11.2139 H   0  0  0  0  0  0  0  0  0  0  0  0
   15.6875  -26.9282  -11.1736 H   0  0  0  0  0  0  0  0  0  0  0  0
   14.8548  -27.5614   -9.7548 H   0  0  0  0  0  0  0  0  0  0  0  0
   10.2417  -26.0523   -9.2466 H   0  0  0  0  0  0  0  0  0  0  0  0
  1  3  1  0  0  0  0
  1  4  2  0  0  0  0
  2  3  2  0  0  0  0
  2 21  1  0  0  0  0
  3 13  1  0  0  0  0
  4 14  1  0  0  0  0
  4 21  1  0  0  0  0
  5  6  1  0  0  0  0
  5  7  2  0  0  0  0
  6  8  2  0  0  0  0
  7  9  1  0  0  0  0
  8 11  1  0  0  0  0
  9 10  2  0  0  0  0
  9 11  1  0  0  0  0
 10 16  1  0  0  0  0
 10 18  1  0  0  0  0
 11 15  2  0  0  0  0
 12 15  1  0  0  0  0
 12 16  1  0  0  0  0
 12 20  2  0  0  0  0
 13 17  1  0  0  0  0
 13 19  2  0  0  0  0
 16 17  1  0  0  0  0
  1 22  1  0  0  0  0
  2 23  1  0  0  0  0
  5 24  1  0  0  0  0
  6 25  1  0  0  0  0
  7 26  1  0  0  0  0
  8 27  1  0  0  0  0
 14 28  1  0  0  0  0
 14 29  1  0  0  0  0
 14 30  1  0  0  0  0
 17 31  1  0  0  0  0
M  CHG  1  18  -1
M  END
> <Hybrid2>
-6.308054447174072

> <Hybrid2>
-6.308054

$$$$
C17054335
  -OEChem-02152218503D

 31 33  0     0  0  0  0  0  0999 V2000
   13.3340  -27.6322  -10.0075 C   0  0  0  0  0  0  0  0  0  0  0  0
   12.1268  -26.8417  -11.8296 C   0  0  0  0  0  0  0  0  0  0  0  0
   12.0724  -27.1863  -10.4970 C   0  0  0  0  0  0  0  0  0  0  0  0
   14.3047  -27.6116  -10.9849 C   0  0  0  0  0  0  0  0  0  0  0  0
    4.7797  -29.0904   -7.3693 C   0  0  0  0  0  0  0  0  0  0  0  0
    4.2164  -27.7704   -7.2458 C   0  0  0  0  0  0  0  0  0  0  0  0
    5.9428  -29.2932   -8.0016 C   0  0  0  0  0  0  0  0  0  0  0  0
    4.8180  -26.6864   -7.7502 C   0  0  0  0  0  0  0  0  0  0  0  0
    6.6844  -28.1871   -8.5896 C   0  0  0  0  0  0  0  0  0  0  0  0
    7.8644  -28.3086   -9.2446 C   0  0  0  0  0  0  0  0  0  0  0  0
    6.1180  -26.8082   -8.4724 C   0  0  0  0  0  0  0  0  0  0  0  0
    7.8754  -25.8504   -9.6167 C   0  0  0  0  0  0  0  0  0  0  0  0
   10.8361  -27.0911   -9.7055 C   0  0  0  0  0  0  0  0  0  0  0  0
   15.7294  -27.9939  -10.8757 C   0  0  0  0  0  0  0  0  0  0  0  0
    6.6742  -25.7420   -8.9483 N   0  0  0  0  0  0  0  0  0  0  0  0
    8.4483  -27.1306   -9.7529 N   0  0  0  0  0  0  0  0  0  0  0  0
    9.6729  -27.2108  -10.4374 N   0  0  0  0  0  0  0  0  0  0  0  0
    8.5403  -29.3545   -9.4751 O   0  5  0  0  0  0  0  0  0  0  0  0
   10.8514  -26.9408   -8.4820 O   0  0  0  0  0  0  0  0  0  0  0  0
    8.5913  -24.4342  -10.2355 S   0  0  0  0  0  0  0  0  0  0  0  0
   13.6941  -27.0562  -12.4852 S   0  0  0  0  0  0  0  0  0  0  0  0
   13.5212  -27.9525   -8.9898 H   0  0  0  0  0  0  0  0  0  0  0  0
   11.3251  -26.4745  -12.4558 H   0  0  0  0  0  0  0  0  0  0  0  0
    4.2332  -29.9198   -6.9337 H   0  0  0  0  0  0  0  0  0  0  0  0
    3.2716  -27.6769   -6.7210 H   0  0  0  0  0  0  0  0  0  0  0  0
    6.3370  -30.3016   -8.0748 H   0  0  0  0  0  0  0  0  0  0  0  0
    4.3795  -25.7004   -7.6465 H   0  0  0  0  0  0  0  0  0  0  0  0
   15.8697  -29.0619  -11.1047 H   0  0  0  0  0  0  0  0  0  0  0  0
   16.3643  -27.4144  -11.5656 H   0  0  0  0  0  0  0  0  0  0  0  0
   16.1275  -27.8102   -9.8643 H   0  0  0  0  0  0  0  0  0  0  0  0
    9.7005  -27.3513  -11.4315 H   0  0  0  0  0  0  0  0  0  0  0  0
  1  3  1  0  0  0  0
  1  4  2  0  0  0  0
  2  3  2  0  0  0  0
  2 21  1  0  0  0  0
  3 13  1  0  0  0  0
  4 14  1  0  0  0  0
  4 21  1  0  0  0  0
  5  6  1  0  0  0  0
  5  7  2  0  0  0  0
  6  8  2  0  0  0  0
  7  9  1  0  0  0  0
  8 11  1  0  0  0  0
  9 10  2  0  0  0  0
  9 11  1  0  0  0  0
 10 16  1  0  0  0  0
 10 18  1  0  0  0  0
 11 15  2  0  0  0  0
 12 15  1  0  0  0  0
 12 16  1  0  0  0  0
 12 20  2  0  0  0  0
 13 17  1  0  0  0  0
 13 19  2  0  0  0  0
 16 17  1  0  0  0  0
  1 22  1  0  0  0  0
  2 23  1  0  0  0  0
  5 24  1  0  0  0  0
  6 25  1  0  0  0  0
  7 26  1  0  0  0  0
  8 27  1  0  0  0  0
 14 28  1  0  0  0  0
 14 29  1  0  0  0  0
 14 30  1  0  0  0  0
 17 31  1  0  0  0  0
M  CHG  1  18  -1
M  END
> <Hybrid2>
-6.308054447174072

> <Hybrid2>
-4.409507

$$$$
C52634924
  -OEChem-02152218503D

 27 29  0     1  0  0  0  0  0999 V2000
    7.2370  -30.8514   -8.6524 C   0  0  0  0  0  0  0  0  0  0  0  0
    9.5037  -26.8194  -12.6088 C   0  0  0  0  0  0  0  0  0  0  0  0
   11.0103  -26.4710  -10.7526 C   0  0  0  0  0  0  0  0  0  0  0  0
   10.5937  -27.0150  -13.4569 C   0  0  0  0  0  0  0  0  0  0  0  0
   12.1004  -26.6666  -11.6006 C   0  0  0  0  0  0  0  0  0  0  0  0
    9.7120  -26.5474  -11.2567 C   0  0  0  0  0  0  0  0  0  0  0  0
   11.8920  -26.9386  -12.9528 C   0  0  0  0  0  0  0  0  0  0  0  0
    7.1561  -29.4312   -8.8207 C   0  0  0  0  0  0  0  0  0  0  0  0
    8.5730  -26.3430  -10.3706 C   0  0  0  0  0  0  0  0  0  0  0  0
    7.9393  -27.3164   -9.6735 C   0  0  0  0  0  0  0  0  0  0  0  0
    8.1021  -28.7715   -9.5353 C   0  0  0  0  0  0  0  0  0  0  0  0
    6.8560  -26.7229   -8.8572 C   0  0  0  0  0  0  0  0  0  0  0  0
    5.9754  -28.7375   -8.1922 C   0  0  0  0  0  0  0  0  0  0  0  0
    8.1281  -24.9166  -10.1743 C   0  0  2  0  0  0  0  0  0  0  0  0
    7.3027  -32.0015   -8.5158 N   0  0  0  0  0  0  0  0  0  0  0  0
    5.9716  -27.3627   -8.1790 N   0  0  0  0  0  0  0  0  0  0  0  0
    9.1350  -29.2081  -10.1155 O   0  5  0  0  0  0  0  0  0  0  0  0
    5.0722  -29.4050   -7.6930 O   0  0  0  0  0  0  0  0  0  0  0  0
   12.9557  -27.1295  -13.7803 O   0  0  0  0  0  0  0  0  0  0  0  0
    6.8620  -24.9806   -8.8868 S   0  0  0  0  0  0  0  0  0  0  0  0
    7.4467  -24.2418  -11.6723 Cl  0  0  0  0  0  0  0  0  0  0  0  0
    8.4976  -26.8821  -13.0165 H   0  0  0  0  0  0  0  0  0  0  0  0
   11.1888  -26.2598   -9.7009 H   0  0  0  0  0  0  0  0  0  0  0  0
   10.4251  -27.2266  -14.5093 H   0  0  0  0  0  0  0  0  0  0  0  0
   13.1095  -26.6059  -11.2022 H   0  0  0  0  0  0  0  0  0  0  0  0
    8.9529  -24.2767   -9.8454 H   0  0  0  0  0  0  0  0  0  0  0  0
   13.7862  -27.0454  -13.2854 H   0  0  0  0  0  0  0  0  0  0  0  0
  1  8  1  0  0  0  0
  1 15  3  0  0  0  0
  2  4  1  0  0  0  0
  2  6  2  0  0  0  0
  3  5  2  0  0  0  0
  3  6  1  0  0  0  0
  4  7  2  0  0  0  0
  5  7  1  0  0  0  0
  6  9  1  0  0  0  0
  7 19  1  0  0  0  0
  8 11  2  0  0  0  0
  8 13  1  0  0  0  0
  9 10  2  0  0  0  0
  9 14  1  0  0  0  0
 10 11  1  0  0  0  0
 10 12  1  0  0  0  0
 11 17  1  0  0  0  0
 12 16  2  0  0  0  0
 12 20  1  0  0  0  0
 13 16  1  0  0  0  0
 13 18  2  0  0  0  0
 14 20  1  0  0  0  0
 14 21  1  0  0  0  0
  2 22  1  0  0  0  0
  3 23  1  0  0  0  0
  4 24  1  0  0  0  0
  5 25  1  0  0  0  0
 14 26  1  0  0  0  0
 19 27  1  0  0  0  0
M  CHG  1  17  -1
M  END
> <Hybrid2>
-6.187862873077393

> <Hybrid2>
-6.187863

$$$$
C52634924
  -OEChem-02152218503D

 27 29  0     1  0  0  0  0  0999 V2000
    7.0359  -30.8225   -8.5185 C   0  0  0  0  0  0  0  0  0  0  0  0
    9.8512  -27.0431  -12.3705 C   0  0  0  0  0  0  0  0  0  0  0  0
   11.1901  -26.6904  -10.3906 C   0  0  0  0  0  0  0  0  0  0  0  0
   11.0062  -27.3170  -13.1028 C   0  0  0  0  0  0  0  0  0  0  0  0
   12.3452  -26.9644  -11.1230 C   0  0  0  0  0  0  0  0  0  0  0  0
    9.9431  -26.7297  -11.0143 C   0  0  0  0  0  0  0  0  0  0  0  0
   12.2532  -27.2777  -12.4791 C   0  0  0  0  0  0  0  0  0  0  0  0
    7.0373  -29.4074   -8.7409 C   0  0  0  0  0  0  0  0  0  0  0  0
    8.7362  -26.4434  -10.2491 C   0  0  0  0  0  0  0  0  0  0  0  0
    7.9949  -27.3618   -9.5842 C   0  0  0  0  0  0  0  0  0  0  0  0
    8.0762  -28.8163   -9.3828 C   0  0  0  0  0  0  0  0  0  0  0  0
    6.8680  -26.6920   -8.8960 C   0  0  0  0  0  0  0  0  0  0  0  0
    5.8359  -28.6405   -8.2522 C   0  0  0  0  0  0  0  0  0  0  0  0
    8.3414  -24.9928  -10.1440 C   0  0  2  0  0  0  0  0  0  0  0  0
    7.0349  -31.9685   -8.3381 N   0  0  0  0  0  0  0  0  0  0  0  0
    5.8947  -27.2673   -8.2851 N   0  0  0  0  0  0  0  0  0  0  0  0
    9.1379  -29.3185   -9.8461 O   0  5  0  0  0  0  0  0  0  0  0  0
    4.8596  -29.2493   -7.8203 O   0  0  0  0  0  0  0  0  0  0  0  0
   13.3803  -27.5451  -13.1938 O   0  0  0  0  0  0  0  0  0  0  0  0
    6.9577  -24.9539   -8.9828 S   0  0  0  0  0  0  0  0  0  0  0  0
    7.8368  -24.3460  -11.7221 Cl  0  0  0  0  0  0  0  0  0  0  0  0
    8.8863  -27.0776  -12.8707 H   0  0  0  0  0  0  0  0  0  0  0  0
   11.2779  -26.4478   -9.3343 H   0  0  0  0  0  0  0  0  0  0  0  0
   10.9283  -27.5604  -14.1590 H   0  0  0  0  0  0  0  0  0  0  0  0
   13.3138  -26.9323  -10.6316 H   0  0  0  0  0  0  0  0  0  0  0  0
    9.1603  -24.3772   -9.7588 H   0  0  0  0  0  0  0  0  0  0  0  0
   14.1634  -27.4783  -12.6243 H   0  0  0  0  0  0  0  0  0  0  0  0
  1  8  1  0  0  0  0
  1 15  3  0  0  0  0
  2  4  1  0  0  0  0
  2  6  2  0  0  0  0
  3  5  2  0  0  0  0
  3  6  1  0  0  0  0
  4  7  2  0  0  0  0
  5  7  1  0  0  0  0
  6  9  1  0  0  0  0
  7 19  1  0  0  0  0
  8 11  2  0  0  0  0
  8 13  1  0  0  0  0
  9 10  2  0  0  0  0
  9 14  1  0  0  0  0
 10 11  1  0  0  0  0
 10 12  1  0  0  0  0
 11 17  1  0  0  0  0
 12 16  2  0  0  0  0
 12 20  1  0  0  0  0
 13 16  1  0  0  0  0
 13 18  2  0  0  0  0
 14 20  1  0  0  0  0
 14 21  1  0  0  0  0
  2 22  1  0  0  0  0
  3 23  1  0  0  0  0
  4 24  1  0  0  0  0
  5 25  1  0  0  0  0
 14 26  1  0  0  0  0
 19 27  1  0  0  0  0
M  CHG  1  17  -1
M  END
> <Hybrid2>
-6.187862873077393

> <Hybrid2>
-5.989931

$$$$
C58279126
  -OEChem-02152218503D

 42 44  0     1  0  0  0  0  0999 V2000
    7.7196  -23.4799   -9.8653 C   0  0  0  0  0  0  0  0  0  0  0  0
    7.5606  -26.1274   -9.5386 C   0  0  0  0  0  0  0  0  0  0  0  0
    7.2045  -27.4812   -9.2205 C   0  0  0  0  0  0  0  0  0  0  0  0
    5.9928  -27.5490   -8.5582 C   0  0  0  0  0  0  0  0  0  0  0  0
    8.6566  -25.5559  -10.1959 C   0  0  0  0  0  0  0  0  0  0  0  0
    6.5917  -25.2397   -9.0854 C   0  0  0  0  0  0  0  0  0  0  0  0
   11.7942  -25.0913  -10.4106 C   0  0  0  0  0  0  0  0  0  0  0  0
    7.9878  -28.7132   -9.5627 C   0  0  0  0  0  0  0  0  0  0  0  0
    5.3454  -28.8068   -8.0664 C   0  0  0  0  0  0  0  0  0  0  0  0
    7.5160  -29.9369   -8.7617 C   0  0  0  0  0  0  0  0  0  0  0  0
    5.9765  -30.0453   -8.7404 C   0  0  1  0  0  0  0  0  0  0  0  0
    5.5320  -31.3232   -8.0323 C   0  0  0  0  0  0  0  0  0  0  0  0
   10.4836  -27.5242  -13.2560 C   0  0  0  0  0  0  0  0  0  0  0  0
   12.6166  -26.2107  -13.1593 C   0  0  0  0  0  0  0  0  0  0  0  0
   10.8331  -25.8000  -11.3912 C   0  0  1  0  0  0  0  0  0  0  0  0
   11.4920  -26.8382  -12.3274 C   0  0  0  0  0  0  0  0  0  0  0  0
    8.7327  -24.2178  -10.3581 N   0  0  0  0  0  0  0  0  0  0  0  0
    6.6174  -23.8995   -9.2199 N   0  0  0  0  0  0  0  0  0  0  0  0
    9.6979  -26.3493  -10.7137 N   0  0  0  0  0  0  0  0  0  0  0  0
   12.4093  -25.8372   -9.5981 O   0  5  0  0  0  0  0  0  0  0  0  0
   11.8784  -23.8370  -10.5541 O   0  0  0  0  0  0  0  0  0  0  0  0
    5.2941  -26.0193   -8.3043 S   0  0  0  0  0  0  0  0  0  0  0  0
    7.8050  -22.4083  -10.0070 H   0  0  0  0  0  0  0  0  0  0  0  0
    7.8736  -28.9151  -10.6348 H   0  0  0  0  0  0  0  0  0  0  0  0
    9.0541  -28.5627   -9.3639 H   0  0  0  0  0  0  0  0  0  0  0  0
    5.4768  -28.8641   -6.9783 H   0  0  0  0  0  0  0  0  0  0  0  0
    4.2674  -28.7925   -8.2676 H   0  0  0  0  0  0  0  0  0  0  0  0
    7.9578  -30.8415   -9.1959 H   0  0  0  0  0  0  0  0  0  0  0  0
    7.8892  -29.8634   -7.7315 H   0  0  0  0  0  0  0  0  0  0  0  0
    5.6245  -30.0936   -9.7806 H   0  0  0  0  0  0  0  0  0  0  0  0
    5.8662  -31.3066   -6.9962 H   0  0  0  0  0  0  0  0  0  0  0  0
    5.9614  -32.1903   -8.5315 H   0  0  0  0  0  0  0  0  0  0  0  0
    4.4461  -31.3996   -8.0556 H   0  0  0  0  0  0  0  0  0  0  0  0
    9.9906  -26.7852  -13.8971 H   0  0  0  0  0  0  0  0  0  0  0  0
    9.7028  -28.0448  -12.6917 H   0  0  0  0  0  0  0  0  0  0  0  0
   10.9721  -28.2528  -13.9099 H   0  0  0  0  0  0  0  0  0  0  0  0
   12.2221  -25.4175  -13.8038 H   0  0  0  0  0  0  0  0  0  0  0  0
   13.0873  -26.9595  -13.8051 H   0  0  0  0  0  0  0  0  0  0  0  0
   13.3930  -25.7693  -12.5258 H   0  0  0  0  0  0  0  0  0  0  0  0
   10.4314  -24.9892  -12.0142 H   0  0  0  0  0  0  0  0  0  0  0  0
   11.9553  -27.6188  -11.7099 H   0  0  0  0  0  0  0  0  0  0  0  0
    9.6194  -27.3425  -10.5921 H   0  0  0  0  0  0  0  0  0  0  0  0
  1 17  2  0  0  0  0
  1 18  1  0  0  0  0
  2  3  1  0  0  0  0
  2  5  2  0  0  0  0
  2  6  1  0  0  0  0
  3  4  2  0  0  0  0
  3  8  1  0  0  0  0
  4  9  1  0  0  0  0
  4 22  1  0  0  0  0
  5 17  1  0  0  0  0
  5 19  1  0  0  0  0
  6 18  2  0  0  0  0
  6 22  1  0  0  0  0
  7 15  1  0  0  0  0
  7 20  1  0  0  0  0
  7 21  2  0  0  0  0
  8 10  1  0  0  0  0
  9 11  1  0  0  0  0
 10 11  1  0  0  0  0
 11 12  1  0  0  0  0
 13 16  1  0  0  0  0
 14 16  1  0  0  0  0
 15 16  1  0  0  0  0
 15 19  1  0  0  0  0
  1 23  1  0  0  0  0
  8 24  1  0  0  0  0
  8 25  1  0  0  0  0
  9 26  1  0  0  0  0
  9 27  1  0  0  0  0
 10 28  1  0  0  0  0
 10 29  1  0  0  0  0
 11 30  1  0  0  0  0
 12 31  1  0  0  0  0
 12 32  1  0  0  0  0
 12 33  1  0  0  0  0
 13 34  1  0  0  0  0
 13 35  1  0  0  0  0
 13 36  1  0  0  0  0
 14 37  1  0  0  0  0
 14 38  1  0  0  0  0
 14 39  1  0  0  0  0
 15 40  1  0  0  0  0
 16 41  1  0  0  0  0
 19 42  1  0  0  0  0
M  CHG  1  20  -1
M  END
> <Hybrid2>
-4.917303562164307

> <Hybrid2>
-4.917304

$$$$
C58279126
  -OEChem-02152218503D

 42 44  0     1  0  0  0  0  0999 V2000
    9.1155  -24.0422  -10.2643 C   0  0  0  0  0  0  0  0  0  0  0  0
    8.7266  -26.6625   -9.9112 C   0  0  0  0  0  0  0  0  0  0  0  0
    8.2437  -27.9784   -9.6010 C   0  0  0  0  0  0  0  0  0  0  0  0
    6.9914  -27.9388   -9.0160 C   0  0  0  0  0  0  0  0  0  0  0  0
    9.9126  -26.1899  -10.4857 C   0  0  0  0  0  0  0  0  0  0  0  0
    7.7982  -25.6942   -9.5477 C   0  0  0  0  0  0  0  0  0  0  0  0
   13.3050  -27.6220  -11.2422 C   0  0  0  0  0  0  0  0  0  0  0  0
    8.9723  -29.2695   -9.8273 C   0  0  0  0  0  0  0  0  0  0  0  0
    6.1944  -29.1338   -8.5884 C   0  0  0  0  0  0  0  0  0  0  0  0
    8.0402  -30.4852   -9.7032 C   0  0  0  0  0  0  0  0  0  0  0  0
    7.0793  -30.3973   -8.4977 C   0  0  1  0  0  0  0  0  0  0  0  0
    7.8330  -30.4592   -7.1650 C   0  0  0  0  0  0  0  0  0  0  0  0
   13.1794  -25.5035  -13.5598 C   0  0  0  0  0  0  0  0  0  0  0  0
   11.5730  -27.4066  -13.8462 C   0  0  0  0  0  0  0  0  0  0  0  0
   12.1528  -26.6241  -11.4952 C   0  0  1  0  0  0  0  0  0  0  0  0
   11.9520  -26.2071  -12.9697 C   0  0  0  0  0  0  0  0  0  0  0  0
   10.1044  -24.8653  -10.6622 N   0  0  0  0  0  0  0  0  0  0  0  0
    7.9375  -24.3630   -9.7014 N   0  0  0  0  0  0  0  0  0  0  0  0
   10.9279  -27.0710  -10.9041 N   0  0  0  0  0  0  0  0  0  0  0  0
   13.2145  -28.7365  -11.8293 O   0  5  0  0  0  0  0  0  0  0  0  0
   14.2304  -27.1943  -10.4928 O   0  0  0  0  0  0  0  0  0  0  0  0
    6.3915  -26.3554   -8.8513 S   0  0  0  0  0  0  0  0  0  0  0  0
    9.2935  -22.9837  -10.4171 H   0  0  0  0  0  0  0  0  0  0  0  0
    9.4142  -29.2518  -10.8308 H   0  0  0  0  0  0  0  0  0  0  0  0
    9.7875  -29.3865   -9.1058 H   0  0  0  0  0  0  0  0  0  0  0  0
    5.7452  -28.9192   -7.6073 H   0  0  0  0  0  0  0  0  0  0  0  0
    5.3675  -29.3184   -9.2890 H   0  0  0  0  0  0  0  0  0  0  0  0
    7.4680  -30.5937  -10.6406 H   0  0  0  0  0  0  0  0  0  0  0  0
    8.6502  -31.4025   -9.6138 H   0  0  0  0  0  0  0  0  0  0  0  0
    6.4106  -31.2842   -8.5426 H   0  0  0  0  0  0  0  0  0  0  0  0
    8.5025  -29.6048   -7.0794 H   0  0  0  0  0  0  0  0  0  0  0  0
    8.4173  -31.3765   -7.1136 H   0  0  0  0  0  0  0  0  0  0  0  0
    7.1241  -30.4410   -6.3387 H   0  0  0  0  0  0  0  0  0  0  0  0
   14.0503  -26.1675  -13.5325 H   0  0  0  0  0  0  0  0  0  0  0  0
   13.4363  -24.5990  -12.9984 H   0  0  0  0  0  0  0  0  0  0  0  0
   13.0153  -25.2194  -14.6036 H   0  0  0  0  0  0  0  0  0  0  0  0
   12.3730  -28.1551  -13.8411 H   0  0  0  0  0  0  0  0  0  0  0  0
   11.4161  -27.0958  -14.8844 H   0  0  0  0  0  0  0  0  0  0  0  0
   10.6584  -27.8947  -13.4936 H   0  0  0  0  0  0  0  0  0  0  0  0
   12.4367  -25.7286  -10.9257 H   0  0  0  0  0  0  0  0  0  0  0  0
   11.1119  -25.5022  -13.0207 H   0  0  0  0  0  0  0  0  0  0  0  0
   10.7635  -28.0525  -10.7737 H   0  0  0  0  0  0  0  0  0  0  0  0
  1 17  2  0  0  0  0
  1 18  1  0  0  0  0
  2  3  1  0  0  0  0
  2  5  2  0  0  0  0
  2  6  1  0  0  0  0
  3  4  2  0  0  0  0
  3  8  1  0  0  0  0
  4  9  1  0  0  0  0
  4 22  1  0  0  0  0
  5 17  1  0  0  0  0
  5 19  1  0  0  0  0
  6 18  2  0  0  0  0
  6 22  1  0  0  0  0
  7 15  1  0  0  0  0
  7 20  1  0  0  0  0
  7 21  2  0  0  0  0
  8 10  1  0  0  0  0
  9 11  1  0  0  0  0
 10 11  1  0  0  0  0
 11 12  1  0  0  0  0
 13 16  1  0  0  0  0
 14 16  1  0  0  0  0
 15 16  1  0  0  0  0
 15 19  1  0  0  0  0
  1 23  1  0  0  0  0
  8 24  1  0  0  0  0
  8 25  1  0  0  0  0
  9 26  1  0  0  0  0
  9 27  1  0  0  0  0
 10 28  1  0  0  0  0
 10 29  1  0  0  0  0
 11 30  1  0  0  0  0
 12 31  1  0  0  0  0
 12 32  1  0  0  0  0
 12 33  1  0  0  0  0
 13 34  1  0  0  0  0
 13 35  1  0  0  0  0
 13 36  1  0  0  0  0
 14 37  1  0  0  0  0
 14 38  1  0  0  0  0
 14 39  1  0  0  0  0
 15 40  1  0  0  0  0
 16 41  1  0  0  0  0
 19 42  1  0  0  0  0
M  CHG  1  20  -1
M  END
> <Hybrid2>
-4.917303562164307

> <Hybrid2>
-4.193746

$$$$
C58279785
  -OEChem-02152218503D

 45 47  0     1  0  0  0  0  0999 V2000
    7.9024  -25.6985   -9.8492 C   0  0  0  0  0  0  0  0  0  0  0  0
    7.5399  -27.0671   -9.6118 C   0  0  0  0  0  0  0  0  0  0  0  0
    6.2827  -27.1724   -9.0463 C   0  0  0  0  0  0  0  0  0  0  0  0
    9.0377  -25.0913  -10.3990 C   0  0  0  0  0  0  0  0  0  0  0  0
    6.8913  -24.8385   -9.4367 C   0  0  0  0  0  0  0  0  0  0  0  0
    8.0531  -23.0388  -10.0601 C   0  0  0  0  0  0  0  0  0  0  0  0
   11.9092  -24.1946  -10.5038 C   0  0  0  0  0  0  0  0  0  0  0  0
    8.3618  -28.2773   -9.9412 C   0  0  0  0  0  0  0  0  0  0  0  0
    5.6155  -28.4546   -8.6541 C   0  0  0  0  0  0  0  0  0  0  0  0
    7.8460  -29.5360   -9.2263 C   0  0  0  0  0  0  0  0  0  0  0  0
    6.3107  -29.6595   -9.3259 C   0  0  1  0  0  0  0  0  0  0  0  0
    8.1657  -21.5560  -10.1897 C   0  0  0  0  0  0  0  0  0  0  0  0
    5.8299  -30.9685   -8.7035 C   0  0  0  0  0  0  0  0  0  0  0  0
   13.4416  -25.7617  -12.7558 C   0  0  0  0  0  0  0  0  0  0  0  0
   12.8514  -27.1727  -10.7695 C   0  0  0  0  0  0  0  0  0  0  0  0
   11.3009  -25.2676  -11.4346 C   0  0  1  0  0  0  0  0  0  0  0  0
   12.2887  -26.3470  -11.9323 C   0  0  0  0  0  0  0  0  0  0  0  0
    9.1094  -23.7472  -10.5030 N   0  0  0  0  0  0  0  0  0  0  0  0
    6.9106  -23.4938   -9.5168 N   0  0  0  0  0  0  0  0  0  0  0  0
   10.1245  -25.8537  -10.8667 N   0  0  0  0  0  0  0  0  0  0  0  0
   12.4163  -24.6157   -9.4266 O   0  5  0  0  0  0  0  0  0  0  0  0
   11.8559  -23.0097  -10.9442 O   0  0  0  0  0  0  0  0  0  0  0  0
    5.5482  -25.6604   -8.7869 S   0  0  0  0  0  0  0  0  0  0  0  0
    8.3313  -28.4377  -11.0259 H   0  0  0  0  0  0  0  0  0  0  0  0
    9.4081  -28.1248   -9.6561 H   0  0  0  0  0  0  0  0  0  0  0  0
    5.6650  -28.5537   -7.5620 H   0  0  0  0  0  0  0  0  0  0  0  0
    4.5556  -28.4423   -8.9353 H   0  0  0  0  0  0  0  0  0  0  0  0
    8.3302  -30.4186   -9.6611 H   0  0  0  0  0  0  0  0  0  0  0  0
    8.1401  -29.5004   -8.1687 H   0  0  0  0  0  0  0  0  0  0  0  0
    6.0381  -29.6701  -10.3904 H   0  0  0  0  0  0  0  0  0  0  0  0
    7.7694  -21.2273  -11.1576 H   0  0  0  0  0  0  0  0  0  0  0  0
    7.6107  -21.0444   -9.3933 H   0  0  0  0  0  0  0  0  0  0  0  0
    9.2102  -21.2287  -10.1108 H   0  0  0  0  0  0  0  0  0  0  0  0
    6.0853  -30.9900   -7.6453 H   0  0  0  0  0  0  0  0  0  0  0  0
    6.3059  -31.8112   -9.2023 H   0  0  0  0  0  0  0  0  0  0  0  0
    4.7498  -31.0539   -8.8115 H   0  0  0  0  0  0  0  0  0  0  0  0
   14.0208  -25.0539  -12.1528 H   0  0  0  0  0  0  0  0  0  0  0  0
   13.0771  -25.2235  -13.6371 H   0  0  0  0  0  0  0  0  0  0  0  0
   14.1283  -26.5428  -13.0956 H   0  0  0  0  0  0  0  0  0  0  0  0
   13.4121  -26.5330  -10.0790 H   0  0  0  0  0  0  0  0  0  0  0  0
   13.5357  -27.9451  -11.1360 H   0  0  0  0  0  0  0  0  0  0  0  0
   12.0570  -27.6634  -10.1976 H   0  0  0  0  0  0  0  0  0  0  0  0
   10.9477  -24.7031  -12.3083 H   0  0  0  0  0  0  0  0  0  0  0  0
   11.7431  -27.0460  -12.5796 H   0  0  0  0  0  0  0  0  0  0  0  0
   10.0495  -26.8518  -10.7900 H   0  0  0  0  0  0  0  0  0  0  0  0
  1  2  1  0  0  0  0
  1  4  1  0  0  0  0
  1  5  2  0  0  0  0
  2  3  2  0  0  0  0
  2  8  1  0  0  0  0
  3  9  1  0  0  0  0
  3 23  1  0  0  0  0
  4 18  2  0  0  0  0
  4 20  1  0  0  0  0
  5 19  1  0  0  0  0
  5 23  1  0  0  0  0
  6 12  1  0  0  0  0
  6 18  1  0  0  0  0
  6 19  2  0  0  0  0
  7 16  1  0  0  0  0
  7 21  1  0  0  0  0
  7 22  2  0  0  0  0
  8 10  1  0  0  0  0
  9 11  1  0  0  0  0
 10 11  1  0  0  0  0
 11 13  1  0  0  0  0
 14 17  1  0  0  0  0
 15 17  1  0  0  0  0
 16 17  1  0  0  0  0
 16 20  1  0  0  0  0
  8 24  1  0  0  0  0
  8 25  1  0  0  0  0
  9 26  1  0  0  0  0
  9 27  1  0  0  0  0
 10 28  1  0  0  0  0
 10 29  1  0  0  0  0
 11 30  1  0  0  0  0
 12 31  1  0  0  0  0
 12 32  1  0  0  0  0
 12 33  1  0  0  0  0
 13 34  1  0  0  0  0
 13 35  1  0  0  0  0
 13 36  1  0  0  0  0
 14 37  1  0  0  0  0
 14 38  1  0  0  0  0
 14 39  1  0  0  0  0
 15 40  1  0  0  0  0
 15 41  1  0  0  0  0
 15 42  1  0  0  0  0
 16 43  1  0  0  0  0
 17 44  1  0  0  0  0
 20 45  1  0  0  0  0
M  CHG  1  21  -1
M  END
> <Hybrid2>
-6.012413024902344

> <Hybrid2>
-6.012413

$$$$
C58279785
  -OEChem-02152218503D

 45 47  0     1  0  0  0  0  0999 V2000
    8.0837  -27.0190   -9.7994 C   0  0  0  0  0  0  0  0  0  0  0  0
    7.6868  -28.3625   -9.4859 C   0  0  0  0  0  0  0  0  0  0  0  0
    6.4527  -28.3991   -8.8632 C   0  0  0  0  0  0  0  0  0  0  0  0
    9.2226  -26.4750  -10.4052 C   0  0  0  0  0  0  0  0  0  0  0  0
    7.1126  -26.1083   -9.4002 C   0  0  0  0  0  0  0  0  0  0  0  0
    8.3104  -24.3784  -10.1421 C   0  0  0  0  0  0  0  0  0  0  0  0
   12.6672  -27.7040  -11.2745 C   0  0  0  0  0  0  0  0  0  0  0  0
    8.4812  -29.6080   -9.7445 C   0  0  0  0  0  0  0  0  0  0  0  0
    5.7391  -29.6409   -8.4220 C   0  0  0  0  0  0  0  0  0  0  0  0
    7.6248  -30.8762   -9.6027 C   0  0  0  0  0  0  0  0  0  0  0  0
    6.6974  -30.8518   -8.3682 C   0  0  1  0  0  0  0  0  0  0  0  0
    8.4636  -22.9081  -10.3490 C   0  0  0  0  0  0  0  0  0  0  0  0
    7.4936  -30.8789   -7.0593 C   0  0  0  0  0  0  0  0  0  0  0  0
   12.4682  -26.0335  -13.7195 C   0  0  0  0  0  0  0  0  0  0  0  0
   10.3883  -27.4329  -13.7000 C   0  0  0  0  0  0  0  0  0  0  0  0
   11.4524  -26.7725  -11.4847 C   0  0  1  0  0  0  0  0  0  0  0  0
   11.1833  -26.3583  -12.9492 C   0  0  0  0  0  0  0  0  0  0  0  0
    9.3325  -25.1404  -10.5764 N   0  0  0  0  0  0  0  0  0  0  0  0
    7.1704  -24.7703   -9.5469 N   0  0  0  0  0  0  0  0  0  0  0  0
   10.2735  -27.2931  -10.8610 N   0  0  0  0  0  0  0  0  0  0  0  0
   12.6230  -28.8180  -11.8678 O   0  5  0  0  0  0  0  0  0  0  0  0
   13.5888  -27.2285  -10.5497 O   0  0  0  0  0  0  0  0  0  0  0  0
    5.7680  -26.8541   -8.6676 S   0  0  0  0  0  0  0  0  0  0  0  0
    8.8909  -29.5583  -10.7606 H   0  0  0  0  0  0  0  0  0  0  0  0
    9.3231  -29.6824   -9.0484 H   0  0  0  0  0  0  0  0  0  0  0  0
    5.3078  -29.4592   -7.4261 H   0  0  0  0  0  0  0  0  0  0  0  0
    4.9030  -29.8682   -9.0988 H   0  0  0  0  0  0  0  0  0  0  0  0
    7.0313  -31.0109  -10.5234 H   0  0  0  0  0  0  0  0  0  0  0  0
    8.2887  -31.7577   -9.5399 H   0  0  0  0  0  0  0  0  0  0  0  0
    6.0797  -31.7752   -8.3999 H   0  0  0  0  0  0  0  0  0  0  0  0
    8.0505  -22.6155  -11.3216 H   0  0  0  0  0  0  0  0  0  0  0  0
    7.9463  -22.3407   -9.5652 H   0  0  0  0  0  0  0  0  0  0  0  0
    9.5191  -22.6100  -10.3142 H   0  0  0  0  0  0  0  0  0  0  0  0
    8.1155  -29.9881   -6.9868 H   0  0  0  0  0  0  0  0  0  0  0  0
    8.1306  -31.7615   -7.0328 H   0  0  0  0  0  0  0  0  0  0  0  0
    6.8102  -30.9066   -6.2120 H   0  0  0  0  0  0  0  0  0  0  0  0
   13.1258  -26.9091  -13.7521 H   0  0  0  0  0  0  0  0  0  0  0  0
   13.0274  -25.2182  -13.2487 H   0  0  0  0  0  0  0  0  0  0  0  0
   12.2538  -25.7449  -14.7529 H   0  0  0  0  0  0  0  0  0  0  0  0
   10.9527  -28.3710  -13.7411 H   0  0  0  0  0  0  0  0  0  0  0  0
   10.1887  -27.1204  -14.7304 H   0  0  0  0  0  0  0  0  0  0  0  0
    9.4295  -27.6425  -13.2146 H   0  0  0  0  0  0  0  0  0  0  0  0
   11.7016  -25.8658  -10.9167 H   0  0  0  0  0  0  0  0  0  0  0  0
   10.5631  -25.4524  -12.9462 H   0  0  0  0  0  0  0  0  0  0  0  0
   10.1701  -28.2834  -10.7338 H   0  0  0  0  0  0  0  0  0  0  0  0
  1  2  1  0  0  0  0
  1  4  1  0  0  0  0
  1  5  2  0  0  0  0
  2  3  2  0  0  0  0
  2  8  1  0  0  0  0
  3  9  1  0  0  0  0
  3 23  1  0  0  0  0
  4 18  2  0  0  0  0
  4 20  1  0  0  0  0
  5 19  1  0  0  0  0
  5 23  1  0  0  0  0
  6 12  1  0  0  0  0
  6 18  1  0  0  0  0
  6 19  2  0  0  0  0
  7 16  1  0  0  0  0
  7 21  1  0  0  0  0
  7 22  2  0  0  0  0
  8 10  1  0  0  0  0
  9 11  1  0  0  0  0
 10 11  1  0  0  0  0
 11 13  1  0  0  0  0
 14 17  1  0  0  0  0
 15 17  1  0  0  0  0
 16 17  1  0  0  0  0
 16 20  1  0  0  0  0
  8 24  1  0  0  0  0
  8 25  1  0  0  0  0
  9 26  1  0  0  0  0
  9 27  1  0  0  0  0
 10 28  1  0  0  0  0
 10 29  1  0  0  0  0
 11 30  1  0  0  0  0
 12 31  1  0  0  0  0
 12 32  1  0  0  0  0
 12 33  1  0  0  0  0
 13 34  1  0  0  0  0
 13 35  1  0  0  0  0
 13 36  1  0  0  0  0
 14 37  1  0  0  0  0
 14 38  1  0  0  0  0
 14 39  1  0  0  0  0
 15 40  1  0  0  0  0
 15 41  1  0  0  0  0
 15 42  1  0  0  0  0
 16 43  1  0  0  0  0
 17 44  1  0  0  0  0
 20 45  1  0  0  0  0
M  CHG  1  21  -1
M  END
> <Hybrid2>
-6.012413024902344

> <Hybrid2>
-4.811529

$$$$
C47328611
  -OEChem-02152218503D

 34 36  0     0  0  0  0  0  0999 V2000
    5.9713  -29.9202   -8.0085 C   0  0  0  0  0  0  0  0  0  0  0  0
    5.1071  -28.8282   -7.9285 C   0  0  0  0  0  0  0  0  0  0  0  0
    9.6793  -26.2287  -11.4872 C   0  0  0  0  0  0  0  0  0  0  0  0
    7.0633  -28.9162   -9.9155 C   0  0  0  0  0  0  0  0  0  0  0  0
   10.6884  -26.8791   -8.9630 C   0  0  0  0  0  0  0  0  0  0  0  0
   10.9961  -26.6843  -11.3641 C   0  0  0  0  0  0  0  0  0  0  0  0
    6.1991  -27.8242   -9.8355 C   0  0  0  0  0  0  0  0  0  0  0  0
   11.4959  -27.0054  -10.0956 C   0  0  0  0  0  0  0  0  0  0  0  0
    6.9494  -29.9642   -9.0020 C   0  0  0  0  0  0  0  0  0  0  0  0
    5.2210  -27.7802   -8.8419 C   0  0  0  0  0  0  0  0  0  0  0  0
    9.3813  -26.4108   -9.0944 C   0  0  0  0  0  0  0  0  0  0  0  0
    8.8784  -26.0838  -10.3536 C   0  0  0  0  0  0  0  0  0  0  0  0
   13.7333  -27.5055  -10.9854 C   0  0  0  0  0  0  0  0  0  0  0  0
   11.8458  -26.9392  -12.5756 C   0  0  0  0  0  0  0  0  0  0  0  0
   13.3220  -26.7727  -12.2474 C   0  0  0  0  0  0  0  0  0  0  0  0
    6.3134  -26.8080  -10.7248 N   0  5  0  0  0  0  0  0  0  0  0  0
   12.8102  -27.4866   -9.9575 N   0  0  0  0  0  0  0  0  0  0  0  0
   14.8564  -27.9958  -10.8685 O   0  0  0  0  0  0  0  0  0  0  0  0
    6.9677  -24.7855   -9.2638 O   0  0  0  0  0  0  0  0  0  0  0  0
    7.2739  -24.6186  -11.6938 O   0  0  0  0  0  0  0  0  0  0  0  0
    7.7794  -31.0128   -9.0788 F   0  0  0  0  0  0  0  0  0  0  0  0
    4.3808  -26.7384   -8.7490 F   0  0  0  0  0  0  0  0  0  0  0  0
    8.6147  -26.2838   -8.0020 F   0  0  0  0  0  0  0  0  0  0  0  0
    7.2371  -25.5099  -10.5197 S   0  0  0  0  0  0  0  0  0  0  0  0
    5.8829  -30.7363   -7.2976 H   0  0  0  0  0  0  0  0  0  0  0  0
    4.3457  -28.7939   -7.1549 H   0  0  0  0  0  0  0  0  0  0  0  0
    9.2769  -25.9968  -12.4705 H   0  0  0  0  0  0  0  0  0  0  0  0
    7.8324  -28.9690  -10.6830 H   0  0  0  0  0  0  0  0  0  0  0  0
   11.0665  -27.1351   -7.9769 H   0  0  0  0  0  0  0  0  0  0  0  0
   11.6521  -27.9615  -12.9227 H   0  0  0  0  0  0  0  0  0  0  0  0
   11.5779  -26.2526  -13.3868 H   0  0  0  0  0  0  0  0  0  0  0  0
   13.5607  -25.7125  -12.0969 H   0  0  0  0  0  0  0  0  0  0  0  0
   13.9287  -27.1369  -13.0837 H   0  0  0  0  0  0  0  0  0  0  0  0
   13.0973  -27.8408   -9.0494 H   0  0  0  0  0  0  0  0  0  0  0  0
  1  2  1  0  0  0  0
  1  9  2  0  0  0  0
  2 10  2  0  0  0  0
  3  6  2  0  0  0  0
  3 12  1  0  0  0  0
  4  7  2  0  0  0  0
  4  9  1  0  0  0  0
  5  8  2  0  0  0  0
  5 11  1  0  0  0  0
  6  8  1  0  0  0  0
  6 14  1  0  0  0  0
  7 10  1  0  0  0  0
  7 16  1  0  0  0  0
  8 17  1  0  0  0  0
  9 21  1  0  0  0  0
 10 22  1  0  0  0  0
 11 12  2  0  0  0  0
 11 23  1  0  0  0  0
 12 24  1  0  0  0  0
 13 15  1  0  0  0  0
 13 17  1  0  0  0  0
 13 18  2  0  0  0  0
 14 15  1  0  0  0  0
 16 24  1  0  0  0  0
 19 24  2  0  0  0  0
 20 24  2  0  0  0  0
  1 25  1  0  0  0  0
  2 26  1  0  0  0  0
  3 27  1  0  0  0  0
  4 28  1  0  0  0  0
  5 29  1  0  0  0  0
 14 30  1  0  0  0  0
 14 31  1  0  0  0  0
 15 32  1  0  0  0  0
 15 33  1  0  0  0  0
 17 34  1  0  0  0  0
M  CHG  1  16  -1
M  END
> <Hybrid2>
-5.6509294509887695

> <Hybrid2>
-5.650929

$$$$
C47328611
  -OEChem-02152218503D

 34 36  0     0  0  0  0  0  0999 V2000
    6.1759  -30.1805   -7.8540 C   0  0  0  0  0  0  0  0  0  0  0  0
    5.4213  -29.0957   -7.4075 C   0  0  0  0  0  0  0  0  0  0  0  0
    9.4468  -26.0106  -11.2291 C   0  0  0  0  0  0  0  0  0  0  0  0
    6.9732  -28.8604   -9.7138 C   0  0  0  0  0  0  0  0  0  0  0  0
   10.8476  -27.1800   -9.1116 C   0  0  0  0  0  0  0  0  0  0  0  0
   10.7280  -26.5279  -11.4480 C   0  0  0  0  0  0  0  0  0  0  0  0
    6.2185  -27.7756   -9.2673 C   0  0  0  0  0  0  0  0  0  0  0  0
   11.4252  -27.1095  -10.3815 C   0  0  0  0  0  0  0  0  0  0  0  0
    6.9519  -30.0628   -9.0072 C   0  0  0  0  0  0  0  0  0  0  0  0
    5.4426  -27.8933   -8.1142 C   0  0  0  0  0  0  0  0  0  0  0  0
    9.5755  -26.6490   -8.9002 C   0  0  0  0  0  0  0  0  0  0  0  0
    8.8773  -26.0632   -9.9561 C   0  0  0  0  0  0  0  0  0  0  0  0
   13.4223  -27.5038  -11.7612 C   0  0  0  0  0  0  0  0  0  0  0  0
   11.3233  -26.5695  -12.8258 C   0  0  0  0  0  0  0  0  0  0  0  0
   12.8426  -26.5231  -12.7618 C   0  0  0  0  0  0  0  0  0  0  0  0
    6.2423  -26.6091   -9.9567 N   0  5  0  0  0  0  0  0  0  0  0  0
   12.7047  -27.6547  -10.5902 N   0  0  0  0  0  0  0  0  0  0  0  0
   14.5098  -28.0470  -11.9555 O   0  0  0  0  0  0  0  0  0  0  0  0
    7.2943  -24.9378   -8.2974 O   0  0  0  0  0  0  0  0  0  0  0  0
    7.1659  -24.3072  -10.6665 O   0  0  0  0  0  0  0  0  0  0  0  0
    7.6767  -31.1046   -9.4358 F   0  0  0  0  0  0  0  0  0  0  0  0
    4.7101  -26.8610   -7.6692 F   0  0  0  0  0  0  0  0  0  0  0  0
    9.0309  -26.7122   -7.6769 F   0  0  0  0  0  0  0  0  0  0  0  0
    7.2787  -25.4101   -9.6943 S   0  0  0  0  0  0  0  0  0  0  0  0
    6.1595  -31.1168   -7.3041 H   0  0  0  0  0  0  0  0  0  0  0  0
    4.8172  -29.1873   -6.5097 H   0  0  0  0  0  0  0  0  0  0  0  0
    8.8905  -25.5759  -12.0561 H   0  0  0  0  0  0  0  0  0  0  0  0
    7.5845  -28.7885  -10.6107 H   0  0  0  0  0  0  0  0  0  0  0  0
   11.3790  -27.6380   -8.2817 H   0  0  0  0  0  0  0  0  0  0  0  0
   10.9970  -27.4961  -13.3137 H   0  0  0  0  0  0  0  0  0  0  0  0
   10.9627  -25.7277  -13.4280 H   0  0  0  0  0  0  0  0  0  0  0  0
   13.1801  -25.5223  -12.4649 H   0  0  0  0  0  0  0  0  0  0  0  0
   13.2598  -26.7370  -13.7519 H   0  0  0  0  0  0  0  0  0  0  0  0
   13.1256  -28.1905   -9.8363 H   0  0  0  0  0  0  0  0  0  0  0  0
  1  2  1  0  0  0  0
  1  9  2  0  0  0  0
  2 10  2  0  0  0  0
  3  6  2  0  0  0  0
  3 12  1  0  0  0  0
  4  7  2  0  0  0  0
  4  9  1  0  0  0  0
  5  8  2  0  0  0  0
  5 11  1  0  0  0  0
  6  8  1  0  0  0  0
  6 14  1  0  0  0  0
  7 10  1  0  0  0  0
  7 16  1  0  0  0  0
  8 17  1  0  0  0  0
  9 21  1  0  0  0  0
 10 22  1  0  0  0  0
 11 12  2  0  0  0  0
 11 23  1  0  0  0  0
 12 24  1  0  0  0  0
 13 15  1  0  0  0  0
 13 17  1  0  0  0  0
 13 18  2  0  0  0  0
 14 15  1  0  0  0  0
 16 24  1  0  0  0  0
 19 24  2  0  0  0  0
 20 24  2  0  0  0  0
  1 25  1  0  0  0  0
  2 26  1  0  0  0  0
  3 27  1  0  0  0  0
  4 28  1  0  0  0  0
  5 29  1  0  0  0  0
 14 30  1  0  0  0  0
 14 31  1  0  0  0  0
 15 32  1  0  0  0  0
 15 33  1  0  0  0  0
 17 34  1  0  0  0  0
M  CHG  1  16  -1
M  END
> <Hybrid2>
-5.6509294509887695

> <Hybrid2>
-5.234643

$$$$
C13081246
  -OEChem-02152218503D

 48 49  0     1  0  0  0  0  0999 V2000
   10.6589  -26.6294   -9.3783 C   0  0  0  0  0  0  0  0  0  0  0  0
    9.4965  -26.2145  -11.4553 C   0  0  0  0  0  0  0  0  0  0  0  0
   11.8482  -26.8196  -10.0819 C   0  0  0  0  0  0  0  0  0  0  0  0
   10.6859  -26.4046  -12.1589 C   0  0  0  0  0  0  0  0  0  0  0  0
    9.4830  -26.3269  -10.0651 C   0  0  0  0  0  0  0  0  0  0  0  0
   11.8617  -26.7071  -11.4721 C   0  0  0  0  0  0  0  0  0  0  0  0
    7.2376  -25.0664   -9.8657 C   0  0  0  0  0  0  0  0  0  0  0  0
    5.8870  -25.1732   -9.9381 C   0  0  0  0  0  0  0  0  0  0  0  0
    7.8532  -23.7912  -10.3018 C   0  0  0  0  0  0  0  0  0  0  0  0
    7.4019  -28.3691  -10.2072 C   0  0  0  0  0  0  0  0  0  0  0  0
    5.2093  -26.4173   -9.3455 C   0  0  0  0  0  0  0  0  0  0  0  0
    8.1785  -26.1187   -9.2947 C   0  0  1  0  0  0  0  0  0  0  0  0
    7.4888  -27.4773   -8.9944 C   0  0  1  0  0  0  0  0  0  0  0  0
    6.0889  -27.2554   -8.3949 C   0  0  2  0  0  0  0  0  0  0  0  0
    8.6542  -23.0263   -9.2897 C   0  0  0  0  0  0  0  0  0  0  0  0
    8.1337  -29.6820  -10.1357 C   0  0  0  0  0  0  0  0  0  0  0  0
    5.3840  -28.5695   -8.0352 C   0  0  0  0  0  0  0  0  0  0  0  0
   14.2921  -27.2103  -11.4797 C   0  0  0  0  0  0  0  0  0  0  0  0
   13.0856  -26.7964  -13.6295 C   0  0  0  0  0  0  0  0  0  0  0  0
   13.0644  -26.8974  -12.1837 N   0  0  0  0  0  0  0  0  0  0  0  0
    5.0085  -24.3851  -10.3938 O   0  5  0  0  0  0  0  0  0  0  0  0
    7.6924  -23.3950  -11.4498 O   0  0  0  0  0  0  0  0  0  0  0  0
    6.7624  -28.0404  -11.2052 O   0  0  0  0  0  0  0  0  0  0  0  0
    6.2223  -26.5189   -7.1695 O   0  0  0  0  0  0  0  0  0  0  0  0
   10.6572  -26.7199   -8.2955 H   0  0  0  0  0  0  0  0  0  0  0  0
    8.5851  -25.9808  -11.9989 H   0  0  0  0  0  0  0  0  0  0  0  0
   12.7584  -27.0563   -9.5371 H   0  0  0  0  0  0  0  0  0  0  0  0
   10.6847  -26.3152  -13.2421 H   0  0  0  0  0  0  0  0  0  0  0  0
    4.3150  -26.1138   -8.7779 H   0  0  0  0  0  0  0  0  0  0  0  0
    4.8606  -27.0479  -10.1769 H   0  0  0  0  0  0  0  0  0  0  0  0
    8.5080  -25.7130   -8.3036 H   0  0  0  0  0  0  0  0  0  0  0  0
    8.1150  -28.0176   -8.2630 H   0  0  0  0  0  0  0  0  0  0  0  0
    9.7067  -23.3218   -9.3013 H   0  0  0  0  0  0  0  0  0  0  0  0
    8.2477  -23.2177   -8.2932 H   0  0  0  0  0  0  0  0  0  0  0  0
    8.5946  -21.9594   -9.5209 H   0  0  0  0  0  0  0  0  0  0  0  0
    7.4718  -30.4515   -9.7286 H   0  0  0  0  0  0  0  0  0  0  0  0
    9.0032  -29.5815   -9.4813 H   0  0  0  0  0  0  0  0  0  0  0  0
    8.4487  -29.9810  -11.1384 H   0  0  0  0  0  0  0  0  0  0  0  0
    6.0150  -29.1482   -7.3661 H   0  0  0  0  0  0  0  0  0  0  0  0
    5.1976  -29.1407   -8.9406 H   0  0  0  0  0  0  0  0  0  0  0  0
    4.4396  -28.3517   -7.5438 H   0  0  0  0  0  0  0  0  0  0  0  0
   15.1128  -27.3203  -12.2039 H   0  0  0  0  0  0  0  0  0  0  0  0
   14.5294  -26.3974  -10.7776 H   0  0  0  0  0  0  0  0  0  0  0  0
   14.1660  -28.1505  -10.9229 H   0  0  0  0  0  0  0  0  0  0  0  0
   14.1075  -26.9755  -13.9951 H   0  0  0  0  0  0  0  0  0  0  0  0
   12.4058  -27.5468  -14.0594 H   0  0  0  0  0  0  0  0  0  0  0  0
   12.7594  -25.7903  -13.9315 H   0  0  0  0  0  0  0  0  0  0  0  0
    5.3247  -26.4055   -6.8289 H   0  0  0  0  0  0  0  0  0  0  0  0
  1  3  2  0  0  0  0
  1  5  1  0  0  0  0
  2  4  1  0  0  0  0
  2  5  2  0  0  0  0
  3  6  1  0  0  0  0
  4  6  2  0  0  0  0
  5 12  1  0  0  0  0
  6 20  1  0  0  0  0
  7  8  2  0  0  0  0
  7  9  1  0  0  0  0
  7 12  1  0  0  0  0
  8 11  1  0  0  0  0
  8 21  1  0  0  0  0
  9 15  1  0  0  0  0
  9 22  2  0  0  0  0
 10 13  1  0  0  0  0
 10 16  1  0  0  0  0
 10 23  2  0  0  0  0
 11 14  1  0  0  0  0
 12 13  1  0  0  0  0
 13 14  1  0  0  0  0
 14 17  1  0  0  0  0
 14 24  1  0  0  0  0
 18 20  1  0  0  0  0
 19 20  1  0  0  0  0
  1 25  1  0  0  0  0
  2 26  1  0  0  0  0
  3 27  1  0  0  0  0
  4 28  1  0  0  0  0
 11 29  1  0  0  0  0
 11 30  1  0  0  0  0
 12 31  1  0  0  0  0
 13 32  1  0  0  0  0
 15 33  1  0  0  0  0
 15 34  1  0  0  0  0
 15 35  1  0  0  0  0
 16 36  1  0  0  0  0
 16 37  1  0  0  0  0
 16 38  1  0  0  0  0
 17 39  1  0  0  0  0
 17 40  1  0  0  0  0
 17 41  1  0  0  0  0
 18 42  1  0  0  0  0
 18 43  1  0  0  0  0
 18 44  1  0  0  0  0
 19 45  1  0  0  0  0
 19 46  1  0  0  0  0
 19 47  1  0  0  0  0
 24 48  1  0  0  0  0
M  CHG  1  21  -1
M  END
> <Hybrid2>
-5.714739799499512

> <Hybrid2>
-5.714740

$$$$
C13081246
  -OEChem-02152218503D

 48 49  0     1  0  0  0  0  0999 V2000
   10.4842  -26.8959   -9.1477 C   0  0  0  0  0  0  0  0  0  0  0  0
    9.3611  -26.3453  -11.2148 C   0  0  0  0  0  0  0  0  0  0  0  0
   11.6634  -27.1371   -9.8526 C   0  0  0  0  0  0  0  0  0  0  0  0
   10.5404  -26.5865  -11.9197 C   0  0  0  0  0  0  0  0  0  0  0  0
    9.3330  -26.5000   -9.8288 C   0  0  0  0  0  0  0  0  0  0  0  0
   11.6915  -26.9824  -11.2386 C   0  0  0  0  0  0  0  0  0  0  0  0
    7.1685  -25.1101   -9.5980 C   0  0  0  0  0  0  0  0  0  0  0  0
    5.8143  -25.1309   -9.6786 C   0  0  0  0  0  0  0  0  0  0  0  0
    7.8639  -23.8623   -9.9915 C   0  0  0  0  0  0  0  0  0  0  0  0
    7.1308  -28.4043  -10.0428 C   0  0  0  0  0  0  0  0  0  0  0  0
    5.0579  -26.3487   -9.1280 C   0  0  0  0  0  0  0  0  0  0  0  0
    8.0396  -26.2358   -9.0570 C   0  0  1  0  0  0  0  0  0  0  0  0
    7.2658  -27.5579   -8.8022 C   0  0  1  0  0  0  0  0  0  0  0  0
    5.8790  -27.2688   -8.2011 C   0  0  2  0  0  0  0  0  0  0  0  0
    8.7049  -23.1804   -8.9529 C   0  0  0  0  0  0  0  0  0  0  0  0
    7.7799  -29.7615  -10.0100 C   0  0  0  0  0  0  0  0  0  0  0  0
    5.0924  -28.5474   -7.8854 C   0  0  0  0  0  0  0  0  0  0  0  0
   14.0863  -27.6342  -11.2532 C   0  0  0  0  0  0  0  0  0  0  0  0
   12.9196  -27.0797  -13.3932 C   0  0  0  0  0  0  0  0  0  0  0  0
   12.8841  -27.2243  -11.9514 N   0  0  0  0  0  0  0  0  0  0  0  0
    4.9886  -24.2762  -10.1124 O   0  5  0  0  0  0  0  0  0  0  0  0
    7.7342  -23.4213  -11.1270 O   0  0  0  0  0  0  0  0  0  0  0  0
    6.5184  -28.0058  -11.0322 O   0  0  0  0  0  0  0  0  0  0  0  0
    6.0507  -26.5805   -6.9525 O   0  0  0  0  0  0  0  0  0  0  0  0
   10.4709  -27.0199   -8.0683 H   0  0  0  0  0  0  0  0  0  0  0  0
    8.4689  -26.0389  -11.7541 H   0  0  0  0  0  0  0  0  0  0  0  0
   12.5543  -27.4465   -9.3123 H   0  0  0  0  0  0  0  0  0  0  0  0
   10.5507  -26.4635  -12.9996 H   0  0  0  0  0  0  0  0  0  0  0  0
    4.1809  -26.0083   -8.5543 H   0  0  0  0  0  0  0  0  0  0  0  0
    4.6757  -26.9303   -9.9800 H   0  0  0  0  0  0  0  0  0  0  0  0
    8.3879  -25.8824   -8.0525 H   0  0  0  0  0  0  0  0  0  0  0  0
    7.8534  -28.1584   -8.0859 H   0  0  0  0  0  0  0  0  0  0  0  0
    9.7373  -23.5398   -8.9700 H   0  0  0  0  0  0  0  0  0  0  0  0
    8.2819  -23.3773   -7.9644 H   0  0  0  0  0  0  0  0  0  0  0  0
    8.7125  -22.1051   -9.1506 H   0  0  0  0  0  0  0  0  0  0  0  0
    7.0696  -30.5009   -9.6297 H   0  0  0  0  0  0  0  0  0  0  0  0
    8.6502  -29.7354   -9.3496 H   0  0  0  0  0  0  0  0  0  0  0  0
    8.0814  -30.0480  -11.0204 H   0  0  0  0  0  0  0  0  0  0  0  0
    5.6828  -29.1846   -7.2326 H   0  0  0  0  0  0  0  0  0  0  0  0
    4.8761  -29.0774   -8.8090 H   0  0  0  0  0  0  0  0  0  0  0  0
    4.1605  -28.2871   -7.3909 H   0  0  0  0  0  0  0  0  0  0  0  0
   14.9026  -27.7721  -11.9775 H   0  0  0  0  0  0  0  0  0  0  0  0
   14.3693  -26.8599  -10.5250 H   0  0  0  0  0  0  0  0  0  0  0  0
   13.8994  -28.5818  -10.7268 H   0  0  0  0  0  0  0  0  0  0  0  0
   13.9305  -27.3101  -13.7606 H   0  0  0  0  0  0  0  0  0  0  0  0
   12.1972  -27.7729  -13.8490 H   0  0  0  0  0  0  0  0  0  0  0  0
   12.6577  -26.0464  -13.6646 H   0  0  0  0  0  0  0  0  0  0  0  0
    5.1599  -26.4225   -6.6118 H   0  0  0  0  0  0  0  0  0  0  0  0
  1  3  2  0  0  0  0
  1  5  1  0  0  0  0
  2  4  1  0  0  0  0
  2  5  2  0  0  0  0
  3  6  1  0  0  0  0
  4  6  2  0  0  0  0
  5 12  1  0  0  0  0
  6 20  1  0  0  0  0
  7  8  2  0  0  0  0
  7  9  1  0  0  0  0
  7 12  1  0  0  0  0
  8 11  1  0  0  0  0
  8 21  1  0  0  0  0
  9 15  1  0  0  0  0
  9 22  2  0  0  0  0
 10 13  1  0  0  0  0
 10 16  1  0  0  0  0
 10 23  2  0  0  0  0
 11 14  1  0  0  0  0
 12 13  1  0  0  0  0
 13 14  1  0  0  0  0
 14 17  1  0  0  0  0
 14 24  1  0  0  0  0
 18 20  1  0  0  0  0
 19 20  1  0  0  0  0
  1 25  1  0  0  0  0
  2 26  1  0  0  0  0
  3 27  1  0  0  0  0
  4 28  1  0  0  0  0
 11 29  1  0  0  0  0
 11 30  1  0  0  0  0
 12 31  1  0  0  0  0
 13 32  1  0  0  0  0
 15 33  1  0  0  0  0
 15 34  1  0  0  0  0
 15 35  1  0  0  0  0
 16 36  1  0  0  0  0
 16 37  1  0  0  0  0
 16 38  1  0  0  0  0
 17 39  1  0  0  0  0
 17 40  1  0  0  0  0
 17 41  1  0  0  0  0
 18 42  1  0  0  0  0
 18 43  1  0  0  0  0
 18 44  1  0  0  0  0
 19 45  1  0  0  0  0
 19 46  1  0  0  0  0
 19 47  1  0  0  0  0
 24 48  1  0  0  0  0
M  CHG  1  21  -1
M  END
> <Hybrid2>
-5.714739799499512

> <Hybrid2>
-5.200691

$$$$
C62135026
  -OEChem-02152218503D

 30 31  0     1  0  0  0  0  0999 V2000
    8.2017  -29.2444   -9.9855 C   0  0  0  0  0  0  0  0  0  0  0  0
    8.1282  -26.9362   -9.2757 C   0  0  0  0  0  0  0  0  0  0  0  0
    6.9316  -29.4505   -9.4470 C   0  0  0  0  0  0  0  0  0  0  0  0
    6.8581  -27.1422   -8.7372 C   0  0  0  0  0  0  0  0  0  0  0  0
    8.8000  -27.9873   -9.8998 C   0  0  0  0  0  0  0  0  0  0  0  0
    6.2598  -28.3994   -8.8229 C   0  0  0  0  0  0  0  0  0  0  0  0
   15.0356  -27.9508  -10.9319 C   0  0  0  0  0  0  0  0  0  0  0  0
   10.8359  -26.5986  -10.4539 C   0  0  0  0  0  0  0  0  0  0  0  0
   14.0573  -26.0436  -12.1828 C   0  0  0  0  0  0  0  0  0  0  0  0
   12.9959  -25.5990  -11.1879 C   0  0  0  0  0  0  0  0  0  0  0  0
   12.6593  -27.9342  -11.6697 C   0  0  0  0  0  0  0  0  0  0  0  0
   14.0835  -27.5604  -12.0488 C   0  0  2  0  0  0  0  0  0  0  0  0
   12.0830  -26.7258  -11.0795 N   0  0  0  0  0  0  0  0  0  0  0  0
   10.0899  -27.7779  -10.4471 N   0  0  0  0  0  0  0  0  0  0  0  0
   14.7730  -27.4544   -9.8015 O   0  5  0  0  0  0  0  0  0  0  0  0
   15.9711  -28.7249  -11.2797 O   0  0  0  0  0  0  0  0  0  0  0  0
   10.4687  -25.5251   -9.9727 O   0  0  0  0  0  0  0  0  0  0  0  0
    4.5389  -28.6787   -8.0934 Br  0  0  0  0  0  0  0  0  0  0  0  0
    8.7164  -30.0704  -10.4694 H   0  0  0  0  0  0  0  0  0  0  0  0
    8.5852  -25.9527   -9.2035 H   0  0  0  0  0  0  0  0  0  0  0  0
    6.4790  -30.4357   -9.5220 H   0  0  0  0  0  0  0  0  0  0  0  0
    6.3477  -26.3131   -8.2540 H   0  0  0  0  0  0  0  0  0  0  0  0
   13.7460  -25.7703  -13.1983 H   0  0  0  0  0  0  0  0  0  0  0  0
   15.0237  -25.5707  -11.9820 H   0  0  0  0  0  0  0  0  0  0  0  0
   13.4239  -25.4219  -10.1950 H   0  0  0  0  0  0  0  0  0  0  0  0
   12.4649  -24.6961  -11.5042 H   0  0  0  0  0  0  0  0  0  0  0  0
   12.0658  -28.1810  -12.5569 H   0  0  0  0  0  0  0  0  0  0  0  0
   12.5970  -28.7639  -10.9582 H   0  0  0  0  0  0  0  0  0  0  0  0
   14.4134  -28.0494  -12.9708 H   0  0  0  0  0  0  0  0  0  0  0  0
   10.5391  -28.6210  -10.9058 H   0  0  0  0  0  0  0  0  0  0  0  0
  1  3  1  0  0  0  0
  1  5  2  0  0  0  0
  2  4  2  0  0  0  0
  2  5  1  0  0  0  0
  3  6  2  0  0  0  0
  4  6  1  0  0  0  0
  5 14  1  0  0  0  0
  6 18  1  0  0  0  0
  7 12  1  0  0  0  0
  7 15  1  0  0  0  0
  7 16  2  0  0  0  0
  8 13  1  0  0  0  0
  8 14  1  0  0  0  0
  8 17  2  0  0  0  0
  9 10  1  0  0  0  0
  9 12  1  0  0  0  0
 10 13  1  0  0  0  0
 11 12  1  0  0  0  0
 11 13  1  0  0  0  0
  1 19  1  0  0  0  0
  2 20  1  0  0  0  0
  3 21  1  0  0  0  0
  4 22  1  0  0  0  0
  9 23  1  0  0  0  0
  9 24  1  0  0  0  0
 10 25  1  0  0  0  0
 10 26  1  0  0  0  0
 11 27  1  0  0  0  0
 11 28  1  0  0  0  0
 12 29  1  0  0  0  0
 14 30  1  0  0  0  0
M  CHG  1  15  -1
M  END
> <Hybrid2>
-3.3946757316589355

> <Hybrid2>
-3.394676

$$$$
C62135026
  -OEChem-02152218503D

 30 31  0     1  0  0  0  0  0999 V2000
    7.9741  -28.7784   -9.6523 C   0  0  0  0  0  0  0  0  0  0  0  0
    7.8237  -26.3696   -9.7619 C   0  0  0  0  0  0  0  0  0  0  0  0
    6.6679  -28.8380   -9.1667 C   0  0  0  0  0  0  0  0  0  0  0  0
    6.5174  -26.4291   -9.2764 C   0  0  0  0  0  0  0  0  0  0  0  0
    8.5521  -27.5443   -9.9498 C   0  0  0  0  0  0  0  0  0  0  0  0
    5.9395  -27.6633   -8.9788 C   0  0  0  0  0  0  0  0  0  0  0  0
   14.8485  -27.6350  -10.4929 C   0  0  0  0  0  0  0  0  0  0  0  0
   10.6117  -26.3486  -10.7913 C   0  0  0  0  0  0  0  0  0  0  0  0
   13.9528  -26.2878  -12.3750 C   0  0  0  0  0  0  0  0  0  0  0  0
   12.8129  -25.5751  -11.6632 C   0  0  0  0  0  0  0  0  0  0  0  0
   12.5370  -27.9479  -11.3592 C   0  0  0  0  0  0  0  0  0  0  0  0
   13.9829  -27.6719  -11.7401 C   0  0  2  0  0  0  0  0  0  0  0  0
   11.9050  -26.6329  -11.2490 N   0  0  0  0  0  0  0  0  0  0  0  0
    9.8786  -27.4839  -10.4433 N   0  0  0  0  0  0  0  0  0  0  0  0
   14.4938  -26.8004   -9.6149 O   0  5  0  0  0  0  0  0  0  0  0  0
   15.8156  -28.4475  -10.4951 O   0  0  0  0  0  0  0  0  0  0  0  0
   10.1979  -25.1897  -10.7238 O   0  0  0  0  0  0  0  0  0  0  0  0
    4.1696  -27.7442   -8.3210 Br  0  0  0  0  0  0  0  0  0  0  0  0
    8.5328  -29.6998   -9.7947 H   0  0  0  0  0  0  0  0  0  0  0  0
    8.2643  -25.4027   -9.9906 H   0  0  0  0  0  0  0  0  0  0  0  0
    6.2318  -29.8073   -8.9397 H   0  0  0  0  0  0  0  0  0  0  0  0
    5.9631  -25.5049   -9.1353 H   0  0  0  0  0  0  0  0  0  0  0  0
   13.7192  -26.3789  -13.4427 H   0  0  0  0  0  0  0  0  0  0  0  0
   14.8962  -25.7416  -12.2763 H   0  0  0  0  0  0  0  0  0  0  0  0
   13.1604  -25.0630  -10.7592 H   0  0  0  0  0  0  0  0  0  0  0  0
   12.2996  -24.8480  -12.2998 H   0  0  0  0  0  0  0  0  0  0  0  0
   12.0169  -28.4963  -12.1523 H   0  0  0  0  0  0  0  0  0  0  0  0
   12.4272  -28.4953  -10.4176 H   0  0  0  0  0  0  0  0  0  0  0  0
   14.3883  -28.4277  -12.4200 H   0  0  0  0  0  0  0  0  0  0  0  0
   10.3702  -28.4152  -10.5610 H   0  0  0  0  0  0  0  0  0  0  0  0
  1  3  1  0  0  0  0
  1  5  2  0  0  0  0
  2  4  2  0  0  0  0
  2  5  1  0  0  0  0
  3  6  2  0  0  0  0
  4  6  1  0  0  0  0
  5 14  1  0  0  0  0
  6 18  1  0  0  0  0
  7 12  1  0  0  0  0
  7 15  1  0  0  0  0
  7 16  2  0  0  0  0
  8 13  1  0  0  0  0
  8 14  1  0  0  0  0
  8 17  2  0  0  0  0
  9 10  1  0  0  0  0
  9 12  1  0  0  0  0
 10 13  1  0  0  0  0
 11 12  1  0  0  0  0
 11 13  1  0  0  0  0
  1 19  1  0  0  0  0
  2 20  1  0  0  0  0
  3 21  1  0  0  0  0
  4 22  1  0  0  0  0
  9 23  1  0  0  0  0
  9 24  1  0  0  0  0
 10 25  1  0  0  0  0
 10 26  1  0  0  0  0
 11 27  1  0  0  0  0
 11 28  1  0  0  0  0
 12 29  1  0  0  0  0
 14 30  1  0  0  0  0
M  CHG  1  15  -1
M  END
> <Hybrid2>
-3.3946757316589355

> <Hybrid2>
-2.968306

$$$$
C62827756
  -OEChem-02152218503D

 37 38  0     1  0  0  0  0  0999 V2000
    7.1391  -27.7691   -8.8412 C   0  0  0  0  0  0  0  0  0  0  0  0
    6.3789  -28.8483   -8.3049 C   0  0  0  0  0  0  0  0  0  0  0  0
    6.7445  -30.0596   -8.8495 C   0  0  0  0  0  0  0  0  0  0  0  0
    8.0570  -28.1968   -9.7752 C   0  0  0  0  0  0  0  0  0  0  0  0
    6.9593  -26.3056   -8.4298 C   0  0  0  0  0  0  0  0  0  0  0  0
    9.2428  -26.1041  -10.5440 C   0  0  0  0  0  0  0  0  0  0  0  0
   12.9837  -26.2292  -10.6980 C   0  0  0  0  0  0  0  0  0  0  0  0
   13.9665  -27.2863  -11.1765 C   0  0  0  0  0  0  0  0  0  0  0  0
   11.6892  -27.0663  -12.5886 C   0  0  0  0  0  0  0  0  0  0  0  0
   11.5999  -26.7186  -11.1090 C   0  0  2  0  0  0  0  0  0  0  0  0
    5.3176  -28.6878   -7.2801 C   0  0  0  0  0  0  0  0  0  0  0  0
    6.2042  -31.4080   -8.5646 C   0  0  0  0  0  0  0  0  0  0  0  0
   11.0035  -24.3278  -10.9136 C   0  0  0  0  0  0  0  0  0  0  0  0
    9.0047  -27.4808  -10.5480 N   0  0  0  0  0  0  0  0  0  0  0  0
   10.5837  -25.7348  -10.8486 N   0  0  0  0  0  0  0  0  0  0  0  0
    6.1258  -25.6342   -9.0957 O   0  5  0  0  0  0  0  0  0  0  0  0
    7.6614  -25.9046   -7.4626 O   0  0  0  0  0  0  0  0  0  0  0  0
    8.3807  -25.2508  -10.3227 O   0  0  0  0  0  0  0  0  0  0  0  0
    7.9996  -29.8931  -10.0024 S   0  0  0  0  0  0  0  0  0  0  0  0
   13.3216  -27.8405  -12.7801 S   0  0  0  0  0  0  0  0  0  0  0  0
   13.0616  -26.0914   -9.6140 H   0  0  0  0  0  0  0  0  0  0  0  0
   13.2121  -25.2635  -11.1689 H   0  0  0  0  0  0  0  0  0  0  0  0
   14.9797  -26.8880  -11.2757 H   0  0  0  0  0  0  0  0  0  0  0  0
   13.9888  -28.1403  -10.4923 H   0  0  0  0  0  0  0  0  0  0  0  0
   10.8953  -27.7509  -12.9003 H   0  0  0  0  0  0  0  0  0  0  0  0
   11.6569  -26.1737  -13.2222 H   0  0  0  0  0  0  0  0  0  0  0  0
   11.3279  -27.6077  -10.5255 H   0  0  0  0  0  0  0  0  0  0  0  0
    4.3398  -28.5226   -7.7548 H   0  0  0  0  0  0  0  0  0  0  0  0
    5.2387  -29.5758   -6.6350 H   0  0  0  0  0  0  0  0  0  0  0  0
    5.5224  -27.8362   -6.6138 H   0  0  0  0  0  0  0  0  0  0  0  0
    5.3613  -31.6428   -9.2326 H   0  0  0  0  0  0  0  0  0  0  0  0
    6.9680  -32.1913   -8.6950 H   0  0  0  0  0  0  0  0  0  0  0  0
    5.8476  -31.4952   -7.5256 H   0  0  0  0  0  0  0  0  0  0  0  0
   11.3442  -23.9999   -9.9204 H   0  0  0  0  0  0  0  0  0  0  0  0
   11.8264  -24.2239  -11.6362 H   0  0  0  0  0  0  0  0  0  0  0  0
   10.1541  -23.7062  -11.2334 H   0  0  0  0  0  0  0  0  0  0  0  0
    9.5778  -28.0327  -11.1782 H   0  0  0  0  0  0  0  0  0  0  0  0
  1  2  1  0  0  0  0
  1  4  2  0  0  0  0
  1  5  1  0  0  0  0
  2  3  2  0  0  0  0
  2 11  1  0  0  0  0
  3 12  1  0  0  0  0
  3 19  1  0  0  0  0
  4 14  1  0  0  0  0
  4 19  1  0  0  0  0
  5 16  1  0  0  0  0
  5 17  2  0  0  0  0
  6 14  1  0  0  0  0
  6 15  1  0  0  0  0
  6 18  2  0  0  0  0
  7  8  1  0  0  0  0
  7 10  1  0  0  0  0
  8 20  1  0  0  0  0
  9 10  1  0  0  0  0
  9 20  1  0  0  0  0
 10 15  1  0  0  0  0
 13 15  1  0  0  0  0
  7 21  1  0  0  0  0
  7 22  1  0  0  0  0
  8 23  1  0  0  0  0
  8 24  1  0  0  0  0
  9 25  1  0  0  0  0
  9 26  1  0  0  0  0
 10 27  1  0  0  0  0
 11 28  1  0  0  0  0
 11 29  1  0  0  0  0
 11 30  1  0  0  0  0
 12 31  1  0  0  0  0
 12 32  1  0  0  0  0
 12 33  1  0  0  0  0
 13 34  1  0  0  0  0
 13 35  1  0  0  0  0
 13 36  1  0  0  0  0
 14 37  1  0  0  0  0
M  CHG  1  16  -1
M  END
> <Hybrid2>
-4.201855182647705

> <Hybrid2>
-4.201855

$$$$
C62827756
  -OEChem-02152218503D

 37 38  0     1  0  0  0  0  0999 V2000
   12.3579  -26.1184  -11.4167 C   0  0  0  0  0  0  0  0  0  0  0  0
   13.6602  -26.5744  -11.7721 C   0  0  0  0  0  0  0  0  0  0  0  0
   14.1065  -27.5710  -10.9324 C   0  0  0  0  0  0  0  0  0  0  0  0
   11.8584  -26.7841  -10.3189 C   0  0  0  0  0  0  0  0  0  0  0  0
   11.6004  -25.0185  -12.1649 C   0  0  0  0  0  0  0  0  0  0  0  0
    9.5733  -25.7851   -9.9227 C   0  0  0  0  0  0  0  0  0  0  0  0
    6.8939  -25.1396  -11.2454 C   0  0  0  0  0  0  0  0  0  0  0  0
    5.7093  -24.1874  -11.2943 C   0  0  0  0  0  0  0  0  0  0  0  0
    7.1417  -24.1739   -9.0190 C   0  0  0  0  0  0  0  0  0  0  0  0
    7.0940  -25.4938   -9.7765 C   0  0  2  0  0  0  0  0  0  0  0  0
   14.4448  -26.0394  -12.9125 C   0  0  0  0  0  0  0  0  0  0  0  0
   15.3925  -28.3036  -10.9603 C   0  0  0  0  0  0  0  0  0  0  0  0
    8.0971  -27.6063   -8.9758 C   0  0  0  0  0  0  0  0  0  0  0  0
   10.6250  -26.6579   -9.6326 N   0  0  0  0  0  0  0  0  0  0  0  0
    8.2838  -26.2751   -9.5701 N   0  0  0  0  0  0  0  0  0  0  0  0
   11.7802  -23.8384  -11.7595 O   0  5  0  0  0  0  0  0  0  0  0  0
   10.8654  -25.3926  -13.1182 O   0  0  0  0  0  0  0  0  0  0  0  0
    9.7164  -24.6664  -10.4206 O   0  0  0  0  0  0  0  0  0  0  0  0
   12.9577  -27.9532   -9.7214 S   0  0  0  0  0  0  0  0  0  0  0  0
    5.8855  -23.1374   -9.8244 S   0  0  0  0  0  0  0  0  0  0  0  0
    6.7009  -26.0285  -11.8560 H   0  0  0  0  0  0  0  0  0  0  0  0
    7.7876  -24.6487  -11.6538 H   0  0  0  0  0  0  0  0  0  0  0  0
    5.7038  -23.5879  -12.2084 H   0  0  0  0  0  0  0  0  0  0  0  0
    4.7634  -24.7335  -11.2250 H   0  0  0  0  0  0  0  0  0  0  0  0
    6.9183  -24.2999   -7.9558 H   0  0  0  0  0  0  0  0  0  0  0  0
    8.1123  -23.6774   -9.1212 H   0  0  0  0  0  0  0  0  0  0  0  0
    6.2552  -26.1060   -9.4206 H   0  0  0  0  0  0  0  0  0  0  0  0
   15.0674  -25.1914  -12.5930 H   0  0  0  0  0  0  0  0  0  0  0  0
   15.1063  -26.8053  -13.3447 H   0  0  0  0  0  0  0  0  0  0  0  0
   13.7916  -25.6956  -13.7287 H   0  0  0  0  0  0  0  0  0  0  0  0
   16.1506  -27.7903  -10.3490 H   0  0  0  0  0  0  0  0  0  0  0  0
   15.2870  -29.3310  -10.5766 H   0  0  0  0  0  0  0  0  0  0  0  0
   15.7889  -28.3962  -11.9843 H   0  0  0  0  0  0  0  0  0  0  0  0
    8.1544  -27.5304   -7.8799 H   0  0  0  0  0  0  0  0  0  0  0  0
    7.1123  -28.0020   -9.2649 H   0  0  0  0  0  0  0  0  0  0  0  0
    8.8850  -28.2831   -9.3380 H   0  0  0  0  0  0  0  0  0  0  0  0
   10.4898  -27.2738   -8.8372 H   0  0  0  0  0  0  0  0  0  0  0  0
  1  2  1  0  0  0  0
  1  4  2  0  0  0  0
  1  5  1  0  0  0  0
  2  3  2  0  0  0  0
  2 11  1  0  0  0  0
  3 12  1  0  0  0  0
  3 19  1  0  0  0  0
  4 14  1  0  0  0  0
  4 19  1  0  0  0  0
  5 16  1  0  0  0  0
  5 17  2  0  0  0  0
  6 14  1  0  0  0  0
  6 15  1  0  0  0  0
  6 18  2  0  0  0  0
  7  8  1  0  0  0  0
  7 10  1  0  0  0  0
  8 20  1  0  0  0  0
  9 10  1  0  0  0  0
  9 20  1  0  0  0  0
 10 15  1  0  0  0  0
 13 15  1  0  0  0  0
  7 21  1  0  0  0  0
  7 22  1  0  0  0  0
  8 23  1  0  0  0  0
  8 24  1  0  0  0  0
  9 25  1  0  0  0  0
  9 26  1  0  0  0  0
 10 27  1  0  0  0  0
 11 28  1  0  0  0  0
 11 29  1  0  0  0  0
 11 30  1  0  0  0  0
 12 31  1  0  0  0  0
 12 32  1  0  0  0  0
 12 33  1  0  0  0  0
 13 34  1  0  0  0  0
 13 35  1  0  0  0  0
 13 36  1  0  0  0  0
 14 37  1  0  0  0  0
M  CHG  1  16  -1
M  END
> <Hybrid2>
-4.201855182647705

> <Hybrid2>
-3.955312

$$$$
C62876313
  -OEChem-02152218503D

 42 43  0     1  0  0  0  0  0999 V2000
   11.9486  -27.6564  -12.9389 C   0  0  0  0  0  0  0  0  0  0  0  0
   10.5975  -27.2160  -13.0433 C   0  0  0  0  0  0  0  0  0  0  0  0
   12.5680  -27.1631  -11.8117 C   0  0  0  0  0  0  0  0  0  0  0  0
   10.2357  -26.4030  -11.9916 C   0  0  0  0  0  0  0  0  0  0  0  0
    5.9430  -29.7352   -9.8961 C   0  0  0  0  0  0  0  0  0  0  0  0
    6.8976  -25.9956  -10.3074 C   0  0  0  0  0  0  0  0  0  0  0  0
    4.0037  -27.5454   -8.8581 C   0  0  0  0  0  0  0  0  0  0  0  0
    4.5593  -28.7390   -8.0825 C   0  0  0  0  0  0  0  0  0  0  0  0
    4.9611  -26.3621   -8.8132 C   0  0  0  0  0  0  0  0  0  0  0  0
    6.9099  -27.8679   -8.5483 C   0  0  0  0  0  0  0  0  0  0  0  0
    5.9856  -29.0907   -8.5111 C   0  0  2  0  0  0  0  0  0  0  0  0
   13.9553  -27.3878  -11.3506 C   0  0  0  0  0  0  0  0  0  0  0  0
    5.7105  -31.4187   -7.6430 C   0  0  0  0  0  0  0  0  0  0  0  0
    8.9127  -25.7414  -11.7342 C   0  0  0  0  0  0  0  0  0  0  0  0
    6.5676  -30.1960   -7.6310 C   0  0  0  0  0  0  0  0  0  0  0  0
    6.3001  -26.7385   -9.2731 N   0  0  0  0  0  0  0  0  0  0  0  0
    8.1689  -26.4077  -10.6884 N   0  0  0  0  0  0  0  0  0  0  0  0
    7.0637  -30.0745  -10.3675 O   0  5  0  0  0  0  0  0  0  0  0  0
    4.7874  -29.8459  -10.3934 O   0  0  0  0  0  0  0  0  0  0  0  0
    6.3405  -25.0343  -10.8484 O   0  0  0  0  0  0  0  0  0  0  0  0
   11.5220  -26.1734  -10.8849 S   0  0  0  0  0  0  0  0  0  0  0  0
   12.4372  -28.3036  -13.6562 H   0  0  0  0  0  0  0  0  0  0  0  0
    9.9279  -27.4857  -13.8500 H   0  0  0  0  0  0  0  0  0  0  0  0
    3.8177  -27.8289   -9.9012 H   0  0  0  0  0  0  0  0  0  0  0  0
    3.0367  -27.2528   -8.4331 H   0  0  0  0  0  0  0  0  0  0  0  0
    4.5507  -28.4948   -7.0120 H   0  0  0  0  0  0  0  0  0  0  0  0
    3.8844  -29.5943   -8.2128 H   0  0  0  0  0  0  0  0  0  0  0  0
    4.5559  -25.5379   -9.4083 H   0  0  0  0  0  0  0  0  0  0  0  0
    5.0650  -25.9955   -7.7848 H   0  0  0  0  0  0  0  0  0  0  0  0
    7.1119  -27.5100   -7.5311 H   0  0  0  0  0  0  0  0  0  0  0  0
    7.8683  -28.1559   -8.9833 H   0  0  0  0  0  0  0  0  0  0  0  0
   14.6350  -26.6235  -11.7587 H   0  0  0  0  0  0  0  0  0  0  0  0
   14.0331  -27.3566  -10.2516 H   0  0  0  0  0  0  0  0  0  0  0  0
   14.3351  -28.3761  -11.6576 H   0  0  0  0  0  0  0  0  0  0  0  0
    4.7058  -31.1664   -7.2838 H   0  0  0  0  0  0  0  0  0  0  0  0
    6.1221  -32.1914   -6.9850 H   0  0  0  0  0  0  0  0  0  0  0  0
    5.6176  -31.8210   -8.6573 H   0  0  0  0  0  0  0  0  0  0  0  0
    9.0549  -24.6975  -11.4343 H   0  0  0  0  0  0  0  0  0  0  0  0
    8.2924  -25.7389  -12.6367 H   0  0  0  0  0  0  0  0  0  0  0  0
    7.5695  -30.4462   -7.9888 H   0  0  0  0  0  0  0  0  0  0  0  0
    6.6627  -29.8241   -6.6079 H   0  0  0  0  0  0  0  0  0  0  0  0
    8.5879  -27.2000  -10.2185 H   0  0  0  0  0  0  0  0  0  0  0  0
  1  2  1  0  0  0  0
  1  3  2  0  0  0  0
  2  4  2  0  0  0  0
  3 12  1  0  0  0  0
  3 21  1  0  0  0  0
  4 14  1  0  0  0  0
  4 21  1  0  0  0  0
  5 11  1  0  0  0  0
  5 18  1  0  0  0  0
  5 19  2  0  0  0  0
  6 16  1  0  0  0  0
  6 17  1  0  0  0  0
  6 20  2  0  0  0  0
  7  8  1  0  0  0  0
  7  9  1  0  0  0  0
  8 11  1  0  0  0  0
  9 16  1  0  0  0  0
 10 11  1  0  0  0  0
 10 16  1  0  0  0  0
 11 15  1  0  0  0  0
 13 15  1  0  0  0  0
 14 17  1  0  0  0  0
  1 22  1  0  0  0  0
  2 23  1  0  0  0  0
  7 24  1  0  0  0  0
  7 25  1  0  0  0  0
  8 26  1  0  0  0  0
  8 27  1  0  0  0  0
  9 28  1  0  0  0  0
  9 29  1  0  0  0  0
 10 30  1  0  0  0  0
 10 31  1  0  0  0  0
 12 32  1  0  0  0  0
 12 33  1  0  0  0  0
 12 34  1  0  0  0  0
 13 35  1  0  0  0  0
 13 36  1  0  0  0  0
 13 37  1  0  0  0  0
 14 38  1  0  0  0  0
 14 39  1  0  0  0  0
 15 40  1  0  0  0  0
 15 41  1  0  0  0  0
 17 42  1  0  0  0  0
M  CHG  1  18  -1
M  END
> <Hybrid2>
-2.838144302368164

> <Hybrid2>
-2.838144

$$$$
C62876313
  -OEChem-02152218503D

 42 43  0     1  0  0  0  0  0999 V2000
   13.2204  -26.0269  -11.3992 C   0  0  0  0  0  0  0  0  0  0  0  0
   11.8376  -26.0156  -11.7425 C   0  0  0  0  0  0  0  0  0  0  0  0
   13.7548  -27.2957  -11.4457 C   0  0  0  0  0  0  0  0  0  0  0  0
   11.3677  -27.2763  -12.0385 C   0  0  0  0  0  0  0  0  0  0  0  0
    5.3937  -28.9983  -10.1239 C   0  0  0  0  0  0  0  0  0  0  0  0
    8.3024  -26.5782  -10.9885 C   0  0  0  0  0  0  0  0  0  0  0  0
    5.1619  -26.0012   -9.3510 C   0  0  0  0  0  0  0  0  0  0  0  0
    4.9798  -27.2135   -8.4388 C   0  0  0  0  0  0  0  0  0  0  0  0
    6.6276  -25.6008   -9.4533 C   0  0  0  0  0  0  0  0  0  0  0  0
    7.3588  -27.9266   -9.0158 C   0  0  0  0  0  0  0  0  0  0  0  0
    5.9033  -28.3703   -8.8273 C   0  0  2  0  0  0  0  0  0  0  0  0
   15.1422  -27.7212  -11.1603 C   0  0  0  0  0  0  0  0  0  0  0  0
    4.3969  -30.0042   -7.6827 C   0  0  0  0  0  0  0  0  0  0  0  0
    9.9811  -27.6855  -12.4435 C   0  0  0  0  0  0  0  0  0  0  0  0
    5.8014  -29.5168   -7.8222 C   0  0  0  0  0  0  0  0  0  0  0  0
    7.4635  -26.7296   -9.8696 N   0  0  0  0  0  0  0  0  0  0  0  0
    9.0686  -27.6887  -11.3218 N   0  0  0  0  0  0  0  0  0  0  0  0
    6.0729  -29.9708  -10.5552 O   0  5  0  0  0  0  0  0  0  0  0  0
    4.3542  -28.4613  -10.5997 O   0  0  0  0  0  0  0  0  0  0  0  0
    8.3662  -25.5299  -11.6397 O   0  0  0  0  0  0  0  0  0  0  0  0
   12.5913  -28.4664  -11.9019 S   0  0  0  0  0  0  0  0  0  0  0  0
   13.7909  -25.1459  -11.1334 H   0  0  0  0  0  0  0  0  0  0  0  0
   11.2226  -25.1250  -11.7711 H   0  0  0  0  0  0  0  0  0  0  0  0
    4.7699  -26.2216  -10.3514 H   0  0  0  0  0  0  0  0  0  0  0  0
    4.5771  -25.1604   -8.9607 H   0  0  0  0  0  0  0  0  0  0  0  0
    5.1931  -26.9087   -7.4057 H   0  0  0  0  0  0  0  0  0  0  0  0
    3.9272  -27.5223   -8.4620 H   0  0  0  0  0  0  0  0  0  0  0  0
    6.7314  -24.7569  -10.1423 H   0  0  0  0  0  0  0  0  0  0  0  0
    7.0000  -25.2670   -8.4773 H   0  0  0  0  0  0  0  0  0  0  0  0
    7.8050  -27.6580   -8.0502 H   0  0  0  0  0  0  0  0  0  0  0  0
    7.9386  -28.7597   -9.4166 H   0  0  0  0  0  0  0  0  0  0  0  0
   15.2658  -27.9747  -10.0958 H   0  0  0  0  0  0  0  0  0  0  0  0
   15.4313  -28.6042  -11.7534 H   0  0  0  0  0  0  0  0  0  0  0  0
   15.8725  -26.9331  -11.4068 H   0  0  0  0  0  0  0  0  0  0  0  0
    3.7533  -29.1802   -7.3529 H   0  0  0  0  0  0  0  0  0  0  0  0
    4.3327  -30.8043   -6.9377 H   0  0  0  0  0  0  0  0  0  0  0  0
    4.0139  -30.3719   -8.6405 H   0  0  0  0  0  0  0  0  0  0  0  0
    9.5824  -27.0017  -13.2007 H   0  0  0  0  0  0  0  0  0  0  0  0
    9.9794  -28.6901  -12.8793 H   0  0  0  0  0  0  0  0  0  0  0  0
    6.4442  -30.3373   -8.1510 H   0  0  0  0  0  0  0  0  0  0  0  0
    6.1693  -29.1739   -6.8520 H   0  0  0  0  0  0  0  0  0  0  0  0
    8.9851  -28.5270  -10.7612 H   0  0  0  0  0  0  0  0  0  0  0  0
  1  2  1  0  0  0  0
  1  3  2  0  0  0  0
  2  4  2  0  0  0  0
  3 12  1  0  0  0  0
  3 21  1  0  0  0  0
  4 14  1  0  0  0  0
  4 21  1  0  0  0  0
  5 11  1  0  0  0  0
  5 18  1  0  0  0  0
  5 19  2  0  0  0  0
  6 16  1  0  0  0  0
  6 17  1  0  0  0  0
  6 20  2  0  0  0  0
  7  8  1  0  0  0  0
  7  9  1  0  0  0  0
  8 11  1  0  0  0  0
  9 16  1  0  0  0  0
 10 11  1  0  0  0  0
 10 16  1  0  0  0  0
 11 15  1  0  0  0  0
 13 15  1  0  0  0  0
 14 17  1  0  0  0  0
  1 22  1  0  0  0  0
  2 23  1  0  0  0  0
  7 24  1  0  0  0  0
  7 25  1  0  0  0  0
  8 26  1  0  0  0  0
  8 27  1  0  0  0  0
  9 28  1  0  0  0  0
  9 29  1  0  0  0  0
 10 30  1  0  0  0  0
 10 31  1  0  0  0  0
 12 32  1  0  0  0  0
 12 33  1  0  0  0  0
 12 34  1  0  0  0  0
 13 35  1  0  0  0  0
 13 36  1  0  0  0  0
 13 37  1  0  0  0  0
 14 38  1  0  0  0  0
 14 39  1  0  0  0  0
 15 40  1  0  0  0  0
 15 41  1  0  0  0  0
 17 42  1  0  0  0  0
M  CHG  1  18  -1
M  END
> <Hybrid2>
-2.838144302368164

> <Hybrid2>
-2.537519

$$$$
C64070184
  -OEChem-02152218503D

 42 44  0     1  0  0  0  0  0999 V2000
    4.8611  -31.2650  -10.0479 C   0  0  0  0  0  0  0  0  0  0  0  0
    5.6141  -29.3259   -9.8745 C   0  0  0  0  0  0  0  0  0  0  0  0
    8.8815  -26.2905  -10.1270 C   0  0  0  0  0  0  0  0  0  0  0  0
    9.3742  -26.6278   -8.9279 C   0  0  0  0  0  0  0  0  0  0  0  0
    5.9823  -27.2856   -8.7738 C   0  0  0  0  0  0  0  0  0  0  0  0
    7.4668  -25.7911  -10.1328 C   0  0  0  0  0  0  0  0  0  0  0  0
    9.6739  -26.3600  -11.3957 C   0  0  0  0  0  0  0  0  0  0  0  0
   10.7771  -27.0908   -8.7001 C   0  0  0  0  0  0  0  0  0  0  0  0
   11.6793  -26.8182   -9.9118 C   0  0  0  0  0  0  0  0  0  0  0  0
    6.8609  -26.0751   -8.7543 C   0  0  2  0  0  0  0  0  0  0  0  0
   10.9750  -27.1713  -11.2318 C   0  0  2  0  0  0  0  0  0  0  0  0
   11.1844  -27.3563  -13.7235 C   0  0  0  0  0  0  0  0  0  0  0  0
   13.1720  -27.8023  -12.2618 C   0  0  0  0  0  0  0  0  0  0  0  0
   12.2967  -25.4659  -12.5087 C   0  0  0  0  0  0  0  0  0  0  0  0
   11.9020  -26.9502  -12.4250 C   0  0  0  0  0  0  0  0  0  0  0  0
    6.0135  -30.5744   -9.8033 N   0  0  0  0  0  0  0  0  0  0  0  0
    3.7738  -30.5223  -10.2659 N   0  0  0  0  0  0  0  0  0  0  0  0
    6.3299  -28.1237   -9.7160 N   0  0  0  0  0  0  0  0  0  0  0  0
    4.2827  -29.2863  -10.1494 N   0  0  0  0  0  0  0  0  0  0  0  0
    5.0786  -27.3380   -7.9107 O   0  5  0  0  0  0  0  0  0  0  0  0
    8.2511  -26.4271   -7.6257 S   0  0  0  0  0  0  0  0  0  0  0  0
    4.8121  -32.3435  -10.0676 H   0  0  0  0  0  0  0  0  0  0  0  0
    7.4708  -24.7117  -10.3277 H   0  0  0  0  0  0  0  0  0  0  0  0
    6.8881  -26.2693  -10.9314 H   0  0  0  0  0  0  0  0  0  0  0  0
    9.0681  -26.8214  -12.1851 H   0  0  0  0  0  0  0  0  0  0  0  0
    9.9009  -25.3363  -11.7188 H   0  0  0  0  0  0  0  0  0  0  0  0
   11.2114  -26.5965   -7.8231 H   0  0  0  0  0  0  0  0  0  0  0  0
   10.7650  -28.1680   -8.4923 H   0  0  0  0  0  0  0  0  0  0  0  0
   11.9653  -25.7579   -9.9198 H   0  0  0  0  0  0  0  0  0  0  0  0
   12.6065  -27.3942   -9.8068 H   0  0  0  0  0  0  0  0  0  0  0  0
    6.2734  -25.2281   -8.3875 H   0  0  0  0  0  0  0  0  0  0  0  0
   10.7149  -28.2388  -11.2038 H   0  0  0  0  0  0  0  0  0  0  0  0
   11.8259  -27.2085  -14.5994 H   0  0  0  0  0  0  0  0  0  0  0  0
   10.2750  -26.7632  -13.8725 H   0  0  0  0  0  0  0  0  0  0  0  0
   10.8930  -28.4123  -13.6980 H   0  0  0  0  0  0  0  0  0  0  0  0
   13.8532  -27.6594  -13.1082 H   0  0  0  0  0  0  0  0  0  0  0  0
   13.7134  -27.5306  -11.3487 H   0  0  0  0  0  0  0  0  0  0  0  0
   12.9336  -28.8702  -12.2026 H   0  0  0  0  0  0  0  0  0  0  0  0
   12.9631  -25.2834  -13.3593 H   0  0  0  0  0  0  0  0  0  0  0  0
   12.8164  -25.1373  -11.6017 H   0  0  0  0  0  0  0  0  0  0  0  0
   11.4130  -24.8303  -12.6355 H   0  0  0  0  0  0  0  0  0  0  0  0
    3.6740  -28.4850  -10.2676 H   0  0  0  0  0  0  0  0  0  0  0  0
  1 16  1  0  0  0  0
  1 17  2  0  0  0  0
  2 16  2  0  0  0  0
  2 18  1  0  0  0  0
  2 19  1  0  0  0  0
  3  4  2  0  0  0  0
  3  6  1  0  0  0  0
  3  7  1  0  0  0  0
  4  8  1  0  0  0  0
  4 21  1  0  0  0  0
  5 10  1  0  0  0  0
  5 18  2  0  0  0  0
  5 20  1  0  0  0  0
  6 10  1  0  0  0  0
  7 11  1  0  0  0  0
  8  9  1  0  0  0  0
  9 11  1  0  0  0  0
 10 21  1  0  0  0  0
 11 15  1  0  0  0  0
 12 15  1  0  0  0  0
 13 15  1  0  0  0  0
 14 15  1  0  0  0  0
 17 19  1  0  0  0  0
  1 22  1  0  0  0  0
  6 23  1  0  0  0  0
  6 24  1  0  0  0  0
  7 25  1  0  0  0  0
  7 26  1  0  0  0  0
  8 27  1  0  0  0  0
  8 28  1  0  0  0  0
  9 29  1  0  0  0  0
  9 30  1  0  0  0  0
 10 31  1  0  0  0  0
 11 32  1  0  0  0  0
 12 33  1  0  0  0  0
 12 34  1  0  0  0  0
 12 35  1  0  0  0  0
 13 36  1  0  0  0  0
 13 37  1  0  0  0  0
 13 38  1  0  0  0  0
 14 39  1  0  0  0  0
 14 40  1  0  0  0  0
 14 41  1  0  0  0  0
 19 42  1  0  0  0  0
M  CHG  1  20  -1
M  END
> <Hybrid2>
-2.8635709285736084

> <Hybrid2>
-2.863571

$$$$
C64070184
  -OEChem-02152218503D

 42 44  0     1  0  0  0  0  0999 V2000
    5.4770  -30.1875   -8.2085 C   0  0  0  0  0  0  0  0  0  0  0  0
    6.2882  -28.5246   -9.1748 C   0  0  0  0  0  0  0  0  0  0  0  0
    8.8348  -25.4704  -11.2525 C   0  0  0  0  0  0  0  0  0  0  0  0
    9.1929  -25.1420  -10.0041 C   0  0  0  0  0  0  0  0  0  0  0  0
    5.9362  -26.2848   -9.7821 C   0  0  0  0  0  0  0  0  0  0  0  0
    7.3804  -25.2999  -11.5789 C   0  0  0  0  0  0  0  0  0  0  0  0
    9.8020  -25.9457  -12.2921 C   0  0  0  0  0  0  0  0  0  0  0  0
   10.5990  -25.1844   -9.4988 C   0  0  0  0  0  0  0  0  0  0  0  0
   11.6189  -25.3140  -10.6387 C   0  0  0  0  0  0  0  0  0  0  0  0
    6.6288  -25.0507  -10.2670 C   0  0  2  0  0  0  0  0  0  0  0  0
   11.1652  -26.3407  -11.6890 C   0  0  2  0  0  0  0  0  0  0  0  0
   11.7512  -27.5688  -13.7949 C   0  0  0  0  0  0  0  0  0  0  0  0
   13.5522  -26.9397  -12.1680 C   0  0  0  0  0  0  0  0  0  0  0  0
   12.4093  -25.1650  -13.5209 C   0  0  0  0  0  0  0  0  0  0  0  0
   12.2138  -26.5027  -12.7873 C   0  0  0  0  0  0  0  0  0  0  0  0
    5.6835  -28.8464   -8.0549 N   0  0  0  0  0  0  0  0  0  0  0  0
    5.9159  -30.7157   -9.3529 N   0  0  0  0  0  0  0  0  0  0  0  0
    6.7684  -27.2830   -9.6336 N   0  0  0  0  0  0  0  0  0  0  0  0
    6.4303  -29.6313   -9.9526 N   0  0  0  0  0  0  0  0  0  0  0  0
    4.7055  -26.1949   -9.5778 O   0  5  0  0  0  0  0  0  0  0  0  0
    7.8787  -24.5986   -9.0167 S   0  0  0  0  0  0  0  0  0  0  0  0
    4.9911  -30.7991   -7.4629 H   0  0  0  0  0  0  0  0  0  0  0  0
    7.2642  -24.4395  -12.2492 H   0  0  0  0  0  0  0  0  0  0  0  0
    6.9926  -26.1815  -12.1021 H   0  0  0  0  0  0  0  0  0  0  0  0
    9.3840  -26.8136  -12.8165 H   0  0  0  0  0  0  0  0  0  0  0  0
    9.9304  -25.1493  -13.0357 H   0  0  0  0  0  0  0  0  0  0  0  0
   10.8319  -24.2808   -8.9229 H   0  0  0  0  0  0  0  0  0  0  0  0
   10.7051  -26.0386   -8.8185 H   0  0  0  0  0  0  0  0  0  0  0  0
   11.7550  -24.3347  -11.1167 H   0  0  0  0  0  0  0  0  0  0  0  0
   12.5917  -25.5989  -10.2204 H   0  0  0  0  0  0  0  0  0  0  0  0
    5.8845  -24.2555  -10.3711 H   0  0  0  0  0  0  0  0  0  0  0  0
   11.0525  -27.3127  -11.1884 H   0  0  0  0  0  0  0  0  0  0  0  0
   12.4848  -27.7078  -14.5969 H   0  0  0  0  0  0  0  0  0  0  0  0
   10.7998  -27.2852  -14.2589 H   0  0  0  0  0  0  0  0  0  0  0  0
   11.6067  -28.5377  -13.3038 H   0  0  0  0  0  0  0  0  0  0  0  0
   14.3211  -27.0623  -12.9391 H   0  0  0  0  0  0  0  0  0  0  0  0
   13.9154  -26.1952  -11.4507 H   0  0  0  0  0  0  0  0  0  0  0  0
   13.4564  -27.8940  -11.6382 H   0  0  0  0  0  0  0  0  0  0  0  0
   13.1588  -25.2576  -14.3150 H   0  0  0  0  0  0  0  0  0  0  0  0
   12.7442  -24.3775  -12.8366 H   0  0  0  0  0  0  0  0  0  0  0  0
   11.4740  -24.8295  -13.9831 H   0  0  0  0  0  0  0  0  0  0  0  0
    6.8510  -29.7230  -10.8697 H   0  0  0  0  0  0  0  0  0  0  0  0
  1 16  1  0  0  0  0
  1 17  2  0  0  0  0
  2 16  2  0  0  0  0
  2 18  1  0  0  0  0
  2 19  1  0  0  0  0
  3  4  2  0  0  0  0
  3  6  1  0  0  0  0
  3  7  1  0  0  0  0
  4  8  1  0  0  0  0
  4 21  1  0  0  0  0
  5 10  1  0  0  0  0
  5 18  2  0  0  0  0
  5 20  1  0  0  0  0
  6 10  1  0  0  0  0
  7 11  1  0  0  0  0
  8  9  1  0  0  0  0
  9 11  1  0  0  0  0
 10 21  1  0  0  0  0
 11 15  1  0  0  0  0
 12 15  1  0  0  0  0
 13 15  1  0  0  0  0
 14 15  1  0  0  0  0
 17 19  1  0  0  0  0
  1 22  1  0  0  0  0
  6 23  1  0  0  0  0
  6 24  1  0  0  0  0
  7 25  1  0  0  0  0
  7 26  1  0  0  0  0
  8 27  1  0  0  0  0
  8 28  1  0  0  0  0
  9 29  1  0  0  0  0
  9 30  1  0  0  0  0
 10 31  1  0  0  0  0
 11 32  1  0  0  0  0
 12 33  1  0  0  0  0
 12 34  1  0  0  0  0
 12 35  1  0  0  0  0
 13 36  1  0  0  0  0
 13 37  1  0  0  0  0
 13 38  1  0  0  0  0
 14 39  1  0  0  0  0
 14 40  1  0  0  0  0
 14 41  1  0  0  0  0
 19 42  1  0  0  0  0
M  CHG  1  20  -1
M  END
> <Hybrid2>
-2.8635709285736084

> <Hybrid2>
-2.580814

$$$$
C65520917
  -OEChem-02152218503D

 40 42  0     1  0  0  0  0  0999 V2000
    7.2239  -25.3613   -9.8849 C   0  0  0  0  0  0  0  0  0  0  0  0
    8.5581  -25.4613   -9.9538 C   0  0  0  0  0  0  0  0  0  0  0  0
    8.5641  -27.8408   -9.4000 C   0  0  0  0  0  0  0  0  0  0  0  0
    6.4027  -26.5132   -9.5600 C   0  0  0  0  0  0  0  0  0  0  0  0
    9.2259  -26.7164   -9.7078 C   0  0  0  0  0  0  0  0  0  0  0  0
    5.0548  -26.5072   -9.4683 C   0  0  0  0  0  0  0  0  0  0  0  0
    7.0739  -27.8309   -9.2989 C   0  0  0  0  0  0  0  0  0  0  0  0
    5.0764  -28.8937   -8.9127 C   0  0  0  0  0  0  0  0  0  0  0  0
   10.6981  -26.8047   -9.7896 C   0  0  0  0  0  0  0  0  0  0  0  0
   11.4607  -27.0397  -13.3702 C   0  0  0  0  0  0  0  0  0  0  0  0
   12.7918  -27.4753  -12.7798 C   0  0  0  0  0  0  0  0  0  0  0  0
   10.4786  -27.3679  -12.2575 C   0  0  0  0  0  0  0  0  0  0  0  0
   12.6732  -27.0796  -11.3023 C   0  0  2  0  0  0  0  0  0  0  0  0
   12.9890  -29.4494  -10.5434 C   0  0  0  0  0  0  0  0  0  0  0  0
   14.9752  -27.9334  -10.7898 C   0  0  0  0  0  0  0  0  0  0  0  0
   13.4957  -28.0142  -10.4219 C   0  0  0  0  0  0  0  0  0  0  0  0
    6.4503  -28.9281   -8.9991 N   0  0  0  0  0  0  0  0  0  0  0  0
    4.4254  -27.6944   -9.1478 N   0  0  0  0  0  0  0  0  0  0  0  0
   11.2312  -27.1220  -11.0276 N   0  0  0  0  0  0  0  0  0  0  0  0
    4.1998  -25.5940   -9.6221 O   0  5  0  0  0  0  0  0  0  0  0  0
   11.3549  -26.6024   -8.7690 O   0  0  0  0  0  0  0  0  0  0  0  0
    4.1524  -30.2515   -8.5329 S   0  0  0  0  0  0  0  0  0  0  0  0
    6.7499  -24.4034  -10.0739 H   0  0  0  0  0  0  0  0  0  0  0  0
    9.1569  -24.5898  -10.1977 H   0  0  0  0  0  0  0  0  0  0  0  0
    9.0663  -28.7847   -9.2139 H   0  0  0  0  0  0  0  0  0  0  0  0
   11.4509  -25.9795  -13.6346 H   0  0  0  0  0  0  0  0  0  0  0  0
   11.2295  -27.6229  -14.2678 H   0  0  0  0  0  0  0  0  0  0  0  0
   12.9827  -28.5424  -12.9292 H   0  0  0  0  0  0  0  0  0  0  0  0
   13.6086  -26.9128  -13.2495 H   0  0  0  0  0  0  0  0  0  0  0  0
    9.6202  -26.6917  -12.2693 H   0  0  0  0  0  0  0  0  0  0  0  0
   10.1330  -28.4016  -12.3017 H   0  0  0  0  0  0  0  0  0  0  0  0
   13.0416  -26.0472  -11.1585 H   0  0  0  0  0  0  0  0  0  0  0  0
   13.0815  -29.8193  -11.5703 H   0  0  0  0  0  0  0  0  0  0  0  0
   11.9352  -29.5157  -10.2534 H   0  0  0  0  0  0  0  0  0  0  0  0
   13.5587  -30.1186   -9.8899 H   0  0  0  0  0  0  0  0  0  0  0  0
   15.1459  -28.2437  -11.8264 H   0  0  0  0  0  0  0  0  0  0  0  0
   15.5728  -28.5811  -10.1396 H   0  0  0  0  0  0  0  0  0  0  0  0
   15.3486  -26.9101  -10.6770 H   0  0  0  0  0  0  0  0  0  0  0  0
   13.3810  -27.6945   -9.3792 H   0  0  0  0  0  0  0  0  0  0  0  0
    3.4117  -27.6733   -9.0839 H   0  0  0  0  0  0  0  0  0  0  0  0
  1  2  2  0  0  0  0
  1  4  1  0  0  0  0
  2  5  1  0  0  0  0
  3  5  2  0  0  0  0
  3  7  1  0  0  0  0
  4  6  2  0  0  0  0
  4  7  1  0  0  0  0
  5  9  1  0  0  0  0
  6 18  1  0  0  0  0
  6 20  1  0  0  0  0
  7 17  2  0  0  0  0
  8 17  1  0  0  0  0
  8 18  1  0  0  0  0
  8 22  2  0  0  0  0
  9 19  1  0  0  0  0
  9 21  2  0  0  0  0
 10 11  1  0  0  0  0
 10 12  1  0  0  0  0
 11 13  1  0  0  0  0
 12 19  1  0  0  0  0
 13 16  1  0  0  0  0
 13 19  1  0  0  0  0
 14 16  1  0  0  0  0
 15 16  1  0  0  0  0
  1 23  1  0  0  0  0
  2 24  1  0  0  0  0
  3 25  1  0  0  0  0
 10 26  1  0  0  0  0
 10 27  1  0  0  0  0
 11 28  1  0  0  0  0
 11 29  1  0  0  0  0
 12 30  1  0  0  0  0
 12 31  1  0  0  0  0
 13 32  1  0  0  0  0
 14 33  1  0  0  0  0
 14 34  1  0  0  0  0
 14 35  1  0  0  0  0
 15 36  1  0  0  0  0
 15 37  1  0  0  0  0
 15 38  1  0  0  0  0
 16 39  1  0  0  0  0
 18 40  1  0  0  0  0
M  CHG  1  20  -1
M  END
> <Hybrid2>
-5.506648540496826

> <Hybrid2>
-5.506649

$$$$
C65520917
  -OEChem-02152218503D

 40 42  0     1  0  0  0  0  0999 V2000
    9.3854  -25.8720  -12.1950 C   0  0  0  0  0  0  0  0  0  0  0  0
    8.4640  -26.0088  -11.2321 C   0  0  0  0  0  0  0  0  0  0  0  0
   10.0398  -26.9980   -9.6487 C   0  0  0  0  0  0  0  0  0  0  0  0
   10.7584  -26.2920  -11.9822 C   0  0  0  0  0  0  0  0  0  0  0  0
    8.8031  -26.5778   -9.9502 C   0  0  0  0  0  0  0  0  0  0  0  0
   11.7524  -26.1933  -12.8919 C   0  0  0  0  0  0  0  0  0  0  0  0
   11.1366  -26.8880  -10.6568 C   0  0  0  0  0  0  0  0  0  0  0  0
   13.3213  -27.1877  -11.2937 C   0  0  0  0  0  0  0  0  0  0  0  0
    7.7721  -26.7189   -8.9028 C   0  0  0  0  0  0  0  0  0  0  0  0
    6.3159  -30.1305   -9.2137 C   0  0  0  0  0  0  0  0  0  0  0  0
    5.5044  -29.4900   -8.0949 C   0  0  0  0  0  0  0  0  0  0  0  0
    7.5303  -29.2204   -9.3223 C   0  0  0  0  0  0  0  0  0  0  0  0
    5.7102  -27.9909   -8.3231 C   0  0  2  0  0  0  0  0  0  0  0  0
    3.2593  -27.6243   -8.7265 C   0  0  0  0  0  0  0  0  0  0  0  0
    4.9285  -25.9163   -9.5012 C   0  0  0  0  0  0  0  0  0  0  0  0
    4.6678  -27.4031   -9.2729 C   0  0  0  0  0  0  0  0  0  0  0  0
   12.3269  -27.3005  -10.3478 N   0  0  0  0  0  0  0  0  0  0  0  0
   13.0068  -26.6422  -12.5270 N   0  0  0  0  0  0  0  0  0  0  0  0
    7.0595  -27.9048   -8.8884 N   0  0  0  0  0  0  0  0  0  0  0  0
   11.7790  -25.7527  -14.0724 O   0  5  0  0  0  0  0  0  0  0  0  0
    7.6070  -25.7922   -8.1098 O   0  0  0  0  0  0  0  0  0  0  0  0
   14.9071  -27.6858  -11.0133 S   0  0  0  0  0  0  0  0  0  0  0  0
    9.1002  -25.4415  -13.1496 H   0  0  0  0  0  0  0  0  0  0  0  0
    7.4418  -25.6898  -11.4082 H   0  0  0  0  0  0  0  0  0  0  0  0
   10.2948  -27.4270   -8.6850 H   0  0  0  0  0  0  0  0  0  0  0  0
    6.5899  -31.1646   -8.9863 H   0  0  0  0  0  0  0  0  0  0  0  0
    5.7480  -30.1230  -10.1511 H   0  0  0  0  0  0  0  0  0  0  0  0
    4.4542  -29.7952   -8.1204 H   0  0  0  0  0  0  0  0  0  0  0  0
    5.9222  -29.7802   -7.1231 H   0  0  0  0  0  0  0  0  0  0  0  0
    8.3280  -29.5354   -8.6408 H   0  0  0  0  0  0  0  0  0  0  0  0
    7.9234  -29.1754  -10.3420 H   0  0  0  0  0  0  0  0  0  0  0  0
    5.6771  -27.4413   -7.3754 H   0  0  0  0  0  0  0  0  0  0  0  0
    3.1236  -27.1260   -7.7603 H   0  0  0  0  0  0  0  0  0  0  0  0
    3.0592  -28.6919   -8.5877 H   0  0  0  0  0  0  0  0  0  0  0  0
    2.5082  -27.2301   -9.4191 H   0  0  0  0  0  0  0  0  0  0  0  0
    4.8585  -25.3507   -8.5657 H   0  0  0  0  0  0  0  0  0  0  0  0
    4.2009  -25.4982  -10.2050 H   0  0  0  0  0  0  0  0  0  0  0  0
    5.9281  -25.7565   -9.9193 H   0  0  0  0  0  0  0  0  0  0  0  0
    4.7497  -27.9202  -10.2364 H   0  0  0  0  0  0  0  0  0  0  0  0
   13.7434  -26.5599  -13.2218 H   0  0  0  0  0  0  0  0  0  0  0  0
  1  2  2  0  0  0  0
  1  4  1  0  0  0  0
  2  5  1  0  0  0  0
  3  5  2  0  0  0  0
  3  7  1  0  0  0  0
  4  6  2  0  0  0  0
  4  7  1  0  0  0  0
  5  9  1  0  0  0  0
  6 18  1  0  0  0  0
  6 20  1  0  0  0  0
  7 17  2  0  0  0  0
  8 17  1  0  0  0  0
  8 18  1  0  0  0  0
  8 22  2  0  0  0  0
  9 19  1  0  0  0  0
  9 21  2  0  0  0  0
 10 11  1  0  0  0  0
 10 12  1  0  0  0  0
 11 13  1  0  0  0  0
 12 19  1  0  0  0  0
 13 16  1  0  0  0  0
 13 19  1  0  0  0  0
 14 16  1  0  0  0  0
 15 16  1  0  0  0  0
  1 23  1  0  0  0  0
  2 24  1  0  0  0  0
  3 25  1  0  0  0  0
 10 26  1  0  0  0  0
 10 27  1  0  0  0  0
 11 28  1  0  0  0  0
 11 29  1  0  0  0  0
 12 30  1  0  0  0  0
 12 31  1  0  0  0  0
 13 32  1  0  0  0  0
 14 33  1  0  0  0  0
 14 34  1  0  0  0  0
 14 35  1  0  0  0  0
 15 36  1  0  0  0  0
 15 37  1  0  0  0  0
 15 38  1  0  0  0  0
 16 39  1  0  0  0  0
 18 40  1  0  0  0  0
M  CHG  1  20  -1
M  END
> <Hybrid2>
-5.506648540496826

> <Hybrid2>
-4.356140

$$$$
C00191707
  -OEChem-02152218503D

 35 35  0     1  0  0  0  0  0999 V2000
    7.1471  -26.8771   -9.7123 C   0  0  0  0  0  0  0  0  0  0  0  0
    8.3046  -28.9964   -9.7903 C   0  0  0  0  0  0  0  0  0  0  0  0
    8.0041  -26.3730  -10.6906 C   0  0  0  0  0  0  0  0  0  0  0  0
    9.1616  -28.4923  -10.7686 C   0  0  0  0  0  0  0  0  0  0  0  0
    7.2974  -28.1888   -9.2621 C   0  0  0  0  0  0  0  0  0  0  0  0
    9.0114  -27.1806  -11.2188 C   0  0  0  0  0  0  0  0  0  0  0  0
   10.0431  -23.8179   -9.8674 C   0  0  0  0  0  0  0  0  0  0  0  0
   10.8368  -24.8945   -9.8909 C   0  0  0  0  0  0  0  0  0  0  0  0
   13.7753  -27.5467  -11.2142 C   0  0  0  0  0  0  0  0  0  0  0  0
    6.3818  -28.7279   -8.2156 C   0  0  0  0  0  0  0  0  0  0  0  0
   13.4243  -25.9402  -13.1898 C   0  0  0  0  0  0  0  0  0  0  0  0
   11.8900  -25.1306  -10.9233 C   0  0  0  0  0  0  0  0  0  0  0  0
   12.8069  -26.9794  -12.2656 C   0  0  2  0  0  0  0  0  0  0  0  0
   11.5972  -26.4087  -11.6204 N   0  0  2  0  0  0  0  0  0  0  0  0
   13.2653  -27.9154  -10.1201 O   0  5  0  0  0  0  0  0  0  0  0  0
   14.9864  -27.5773  -11.5811 O   0  0  0  0  0  0  0  0  0  0  0  0
   10.2128  -27.5539  -13.4960 O   0  0  0  0  0  0  0  0  0  0  0  0
    9.6206  -25.2162  -12.8117 O   0  0  0  0  0  0  0  0  0  0  0  0
   10.0982  -26.5415  -12.4625 S   0  0  0  0  0  0  0  0  0  0  0  0
    6.3655  -26.2405   -9.3064 H   0  0  0  0  0  0  0  0  0  0  0  0
    8.4294  -30.0194   -9.4453 H   0  0  0  0  0  0  0  0  0  0  0  0
    7.8787  -25.3495  -11.0339 H   0  0  0  0  0  0  0  0  0  0  0  0
    9.9432  -29.1300  -11.1730 H   0  0  0  0  0  0  0  0  0  0  0  0
    9.3001  -23.7007   -9.0861 H   0  0  0  0  0  0  0  0  0  0  0  0
   10.1181  -23.0407  -10.6200 H   0  0  0  0  0  0  0  0  0  0  0  0
   10.7236  -25.6407   -9.1082 H   0  0  0  0  0  0  0  0  0  0  0  0
    5.5022  -29.1910   -8.6794 H   0  0  0  0  0  0  0  0  0  0  0  0
    6.8850  -29.4808   -7.5953 H   0  0  0  0  0  0  0  0  0  0  0  0
    6.0405  -27.9345   -7.5378 H   0  0  0  0  0  0  0  0  0  0  0  0
   13.7859  -25.0745  -12.6247 H   0  0  0  0  0  0  0  0  0  0  0  0
   14.2688  -26.3556  -13.7516 H   0  0  0  0  0  0  0  0  0  0  0  0
   12.6894  -25.5840  -13.9203 H   0  0  0  0  0  0  0  0  0  0  0  0
   12.8699  -25.2065  -10.4420 H   0  0  0  0  0  0  0  0  0  0  0  0
   11.9340  -24.3266  -11.6649 H   0  0  0  0  0  0  0  0  0  0  0  0
   12.4612  -27.8232  -12.8753 H   0  0  0  0  0  0  0  0  0  0  0  0
  1  3  2  0  0  0  0
  1  5  1  0  0  0  0
  2  4  1  0  0  0  0
  2  5  2  0  0  0  0
  3  6  1  0  0  0  0
  4  6  2  0  0  0  0
  5 10  1  0  0  0  0
  6 19  1  0  0  0  0
  7  8  2  0  0  0  0
  8 12  1  0  0  0  0
  9 13  1  0  0  0  0
  9 15  1  0  0  0  0
  9 16  2  0  0  0  0
 11 13  1  0  0  0  0
 12 14  1  0  0  0  0
 13 14  1  0  0  0  0
 14 19  1  0  0  0  0
 17 19  2  0  0  0  0
 18 19  2  0  0  0  0
  1 20  1  0  0  0  0
  2 21  1  0  0  0  0
  3 22  1  0  0  0  0
  4 23  1  0  0  0  0
  7 24  1  0  0  0  0
  7 25  1  0  0  0  0
  8 26  1  0  0  0  0
 10 27  1  0  0  0  0
 10 28  1  0  0  0  0
 10 29  1  0  0  0  0
 11 30  1  0  0  0  0
 11 31  1  0  0  0  0
 11 32  1  0  0  0  0
 12 33  1  0  0  0  0
 12 34  1  0  0  0  0
 13 35  1  0  0  0  0
M  CHG  1  15  -1
M  END
> <Hybrid2>
-2.778353214263916

> <Hybrid2>
-2.778353

$$$$
C00191707
  -OEChem-02152218503D

 35 35  0     1  0  0  0  0  0999 V2000
    6.5954  -25.6098   -9.2173 C   0  0  0  0  0  0  0  0  0  0  0  0
    7.1313  -27.9655   -9.1949 C   0  0  0  0  0  0  0  0  0  0  0  0
    7.9384  -25.3064   -9.4402 C   0  0  0  0  0  0  0  0  0  0  0  0
    8.4744  -27.6621   -9.4179 C   0  0  0  0  0  0  0  0  0  0  0  0
    6.1918  -26.9394   -9.0945 C   0  0  0  0  0  0  0  0  0  0  0  0
    8.8779  -26.3325   -9.5406 C   0  0  0  0  0  0  0  0  0  0  0  0
    8.2837  -24.6194  -12.8914 C   0  0  0  0  0  0  0  0  0  0  0  0
    9.1512  -25.6354  -12.9599 C   0  0  0  0  0  0  0  0  0  0  0  0
   13.2576  -26.5141  -11.9896 C   0  0  0  0  0  0  0  0  0  0  0  0
    4.7560  -27.2641   -8.8554 C   0  0  0  0  0  0  0  0  0  0  0  0
   11.6647  -28.3593  -12.8050 C   0  0  0  0  0  0  0  0  0  0  0  0
   10.5831  -25.5375  -12.5467 C   0  0  0  0  0  0  0  0  0  0  0  0
   12.0063  -27.3625  -11.7074 C   0  0  2  0  0  0  0  0  0  0  0  0
   10.8279  -26.4987  -11.4415 N   0  0  2  0  0  0  0  0  0  0  0  0
   13.2759  -25.3548  -11.4910 O   0  5  0  0  0  0  0  0  0  0  0  0
   14.1328  -27.0926  -12.6979 O   0  0  0  0  0  0  0  0  0  0  0  0
   10.7112  -24.5025   -9.7839 O   0  0  0  0  0  0  0  0  0  0  0  0
   11.3662  -26.7603   -8.9137 O   0  0  0  0  0  0  0  0  0  0  0  0
   10.5829  -25.9476   -9.8259 S   0  0  0  0  0  0  0  0  0  0  0  0
    5.8706  -24.8037   -9.1402 H   0  0  0  0  0  0  0  0  0  0  0  0
    6.8261  -29.0043   -9.1001 H   0  0  0  0  0  0  0  0  0  0  0  0
    8.2423  -24.2671   -9.5338 H   0  0  0  0  0  0  0  0  0  0  0  0
    9.1980  -28.4693   -9.4940 H   0  0  0  0  0  0  0  0  0  0  0  0
    7.2533  -24.7556  -13.2012 H   0  0  0  0  0  0  0  0  0  0  0  0
    8.5820  -23.6416  -12.5294 H   0  0  0  0  0  0  0  0  0  0  0  0
    8.7978  -26.5967  -13.3248 H   0  0  0  0  0  0  0  0  0  0  0  0
    4.2295  -27.3928   -9.8090 H   0  0  0  0  0  0  0  0  0  0  0  0
    4.6482  -28.1872   -8.2711 H   0  0  0  0  0  0  0  0  0  0  0  0
    4.2569  -26.4684   -8.2869 H   0  0  0  0  0  0  0  0  0  0  0  0
   11.4670  -27.8492  -13.7538 H   0  0  0  0  0  0  0  0  0  0  0  0
   12.4814  -29.0722  -12.9666 H   0  0  0  0  0  0  0  0  0  0  0  0
   10.7729  -28.9384  -12.5404 H   0  0  0  0  0  0  0  0  0  0  0  0
   10.7970  -24.5255  -12.1893 H   0  0  0  0  0  0  0  0  0  0  0  0
   11.2703  -25.7628  -13.3685 H   0  0  0  0  0  0  0  0  0  0  0  0
   12.1951  -27.9188  -10.7810 H   0  0  0  0  0  0  0  0  0  0  0  0
  1  3  2  0  0  0  0
  1  5  1  0  0  0  0
  2  4  1  0  0  0  0
  2  5  2  0  0  0  0
  3  6  1  0  0  0  0
  4  6  2  0  0  0  0
  5 10  1  0  0  0  0
  6 19  1  0  0  0  0
  7  8  2  0  0  0  0
  8 12  1  0  0  0  0
  9 13  1  0  0  0  0
  9 15  1  0  0  0  0
  9 16  2  0  0  0  0
 11 13  1  0  0  0  0
 12 14  1  0  0  0  0
 13 14  1  0  0  0  0
 14 19  1  0  0  0  0
 17 19  2  0  0  0  0
 18 19  2  0  0  0  0
  1 20  1  0  0  0  0
  2 21  1  0  0  0  0
  3 22  1  0  0  0  0
  4 23  1  0  0  0  0
  7 24  1  0  0  0  0
  7 25  1  0  0  0  0
  8 26  1  0  0  0  0
 10 27  1  0  0  0  0
 10 28  1  0  0  0  0
 10 29  1  0  0  0  0
 11 30  1  0  0  0  0
 11 31  1  0  0  0  0
 11 32  1  0  0  0  0
 12 33  1  0  0  0  0
 12 34  1  0  0  0  0
 13 35  1  0  0  0  0
M  CHG  1  15  -1
M  END
> <Hybrid2>
-2.778353214263916

> <Hybrid2>
-2.719183

$$$$
C19812719
  -OEChem-02152218503D

 30 30  0     0  0  0  0  0  0999 V2000
    8.2057  -28.5286   -9.4491 C   0  0  0  0  0  0  0  0  0  0  0  0
    7.6436  -27.3018   -9.1644 C   0  0  0  0  0  0  0  0  0  0  0  0
    9.5257  -27.2702  -10.6674 C   0  0  0  0  0  0  0  0  0  0  0  0
   13.5696  -27.3025  -11.5513 C   0  0  0  0  0  0  0  0  0  0  0  0
    5.1965  -26.9836   -9.1077 C   0  0  0  0  0  0  0  0  0  0  0  0
    7.7587  -29.8332   -8.9197 C   0  0  0  0  0  0  0  0  0  0  0  0
   16.0525  -27.6529  -11.4444 C   0  0  0  0  0  0  0  0  0  0  0  0
   14.6388  -28.4188   -9.5776 C   0  0  0  0  0  0  0  0  0  0  0  0
    6.4983  -26.9580   -8.2980 C   0  0  0  0  0  0  0  0  0  0  0  0
   12.2517  -27.5098  -10.8249 C   0  0  0  0  0  0  0  0  0  0  0  0
    9.2848  -28.5125  -10.3111 N   0  0  0  0  0  0  0  0  0  0  0  0
   14.7086  -27.7733  -10.8831 N   0  0  0  0  0  0  0  0  0  0  0  0
    4.8838  -28.1099   -9.5875 O   0  5  0  0  0  0  0  0  0  0  0  0
   13.6204  -26.7554  -12.6558 O   0  0  0  0  0  0  0  0  0  0  0  0
    4.5952  -25.8756   -9.1940 O   0  0  0  0  0  0  0  0  0  0  0  0
    8.4937  -26.0708  -10.0030 S   0  0  0  0  0  0  0  0  0  0  0  0
   10.8458  -26.8744  -11.7735 S   0  0  0  0  0  0  0  0  0  0  0  0
    7.0017  -30.2894   -9.5777 H   0  0  0  0  0  0  0  0  0  0  0  0
    8.5938  -30.5472   -8.8226 H   0  0  0  0  0  0  0  0  0  0  0  0
    7.3173  -29.7406   -7.9130 H   0  0  0  0  0  0  0  0  0  0  0  0
   16.5005  -26.7008  -11.1237 H   0  0  0  0  0  0  0  0  0  0  0  0
   16.6741  -28.4883  -11.0896 H   0  0  0  0  0  0  0  0  0  0  0  0
   15.9948  -27.6794  -12.5426 H   0  0  0  0  0  0  0  0  0  0  0  0
   14.5109  -29.5032   -9.7105 H   0  0  0  0  0  0  0  0  0  0  0  0
   15.5684  -28.2246   -9.0225 H   0  0  0  0  0  0  0  0  0  0  0  0
   13.7843  -28.0152   -9.0145 H   0  0  0  0  0  0  0  0  0  0  0  0
    6.4064  -27.6548   -7.4433 H   0  0  0  0  0  0  0  0  0  0  0  0
    6.6181  -25.9592   -7.8373 H   0  0  0  0  0  0  0  0  0  0  0  0
   12.0913  -28.5788  -10.6586 H   0  0  0  0  0  0  0  0  0  0  0  0
   12.2756  -26.9831   -9.8669 H   0  0  0  0  0  0  0  0  0  0  0  0
  1  2  2  0  0  0  0
  1  6  1  0  0  0  0
  1 11  1  0  0  0  0
  2  9  1  0  0  0  0
  2 16  1  0  0  0  0
  3 11  2  0  0  0  0
  3 16  1  0  0  0  0
  3 17  1  0  0  0  0
  4 10  1  0  0  0  0
  4 12  1  0  0  0  0
  4 14  2  0  0  0  0
  5  9  1  0  0  0  0
  5 13  1  0  0  0  0
  5 15  2  0  0  0  0
  7 12  1  0  0  0  0
  8 12  1  0  0  0  0
 10 17  1  0  0  0  0
  6 18  1  0  0  0  0
  6 19  1  0  0  0  0
  6 20  1  0  0  0  0
  7 21  1  0  0  0  0
  7 22  1  0  0  0  0
  7 23  1  0  0  0  0
  8 24  1  0  0  0  0
  8 25  1  0  0  0  0
  8 26  1  0  0  0  0
  9 27  1  0  0  0  0
  9 28  1  0  0  0  0
 10 29  1  0  0  0  0
 10 30  1  0  0  0  0
M  CHG  1  13  -1
M  END
> <Hybrid2>
-4.755417823791504

> <Hybrid2>
-4.755418

$$$$
C19812719
  -OEChem-02152218503D

 30 30  0     0  0  0  0  0  0999 V2000
   10.9739  -27.0022  -12.4288 C   0  0  0  0  0  0  0  0  0  0  0  0
   11.9843  -26.4920  -11.6408 C   0  0  0  0  0  0  0  0  0  0  0  0
    9.7928  -26.5322  -10.6417 C   0  0  0  0  0  0  0  0  0  0  0  0
    6.6512  -28.3707   -8.6705 C   0  0  0  0  0  0  0  0  0  0  0  0
   14.1976  -27.5772  -11.5146 C   0  0  0  0  0  0  0  0  0  0  0  0
   11.1212  -27.5152  -13.8062 C   0  0  0  0  0  0  0  0  0  0  0  0
    5.0489  -30.0763   -7.7633 C   0  0  0  0  0  0  0  0  0  0  0  0
    6.9205  -30.8087   -9.1885 C   0  0  0  0  0  0  0  0  0  0  0  0
   13.4222  -26.3213  -11.9297 C   0  0  0  0  0  0  0  0  0  0  0  0
    7.8921  -28.1580   -9.5204 C   0  0  0  0  0  0  0  0  0  0  0  0
    9.7166  -27.0264  -11.8574 N   0  0  0  0  0  0  0  0  0  0  0  0
    6.2242  -29.7003   -8.5461 N   0  0  0  0  0  0  0  0  0  0  0  0
   13.8880  -28.6312  -12.1390 O   0  5  0  0  0  0  0  0  0  0  0  0
    6.0677  -27.4276   -8.1303 O   0  0  0  0  0  0  0  0  0  0  0  0
   15.0525  -27.4037  -10.6003 O   0  0  0  0  0  0  0  0  0  0  0  0
   11.3453  -26.0186  -10.1212 S   0  0  0  0  0  0  0  0  0  0  0  0
    8.3624  -26.4114   -9.6111 S   0  0  0  0  0  0  0  0  0  0  0  0
   11.3469  -28.5937  -13.8053 H   0  0  0  0  0  0  0  0  0  0  0  0
   10.2060  -27.3638  -14.4030 H   0  0  0  0  0  0  0  0  0  0  0  0
   11.9307  -27.0028  -14.3530 H   0  0  0  0  0  0  0  0  0  0  0  0
    4.1575  -30.0580   -8.4074 H   0  0  0  0  0  0  0  0  0  0  0  0
    5.1874  -31.0894   -7.3578 H   0  0  0  0  0  0  0  0  0  0  0  0
    4.9173  -29.3647   -6.9349 H   0  0  0  0  0  0  0  0  0  0  0  0
    7.6920  -31.2006   -8.5094 H   0  0  0  0  0  0  0  0  0  0  0  0
    6.2006  -31.6062   -9.4246 H   0  0  0  0  0  0  0  0  0  0  0  0
    7.3940  -30.4556  -10.1164 H   0  0  0  0  0  0  0  0  0  0  0  0
   13.6045  -26.1219  -13.0028 H   0  0  0  0  0  0  0  0  0  0  0  0
   13.8450  -25.4448  -11.4031 H   0  0  0  0  0  0  0  0  0  0  0  0
    8.7300  -28.7113   -9.0871 H   0  0  0  0  0  0  0  0  0  0  0  0
    7.7016  -28.5075  -10.5390 H   0  0  0  0  0  0  0  0  0  0  0  0
  1  2  2  0  0  0  0
  1  6  1  0  0  0  0
  1 11  1  0  0  0  0
  2  9  1  0  0  0  0
  2 16  1  0  0  0  0
  3 11  2  0  0  0  0
  3 16  1  0  0  0  0
  3 17  1  0  0  0  0
  4 10  1  0  0  0  0
  4 12  1  0  0  0  0
  4 14  2  0  0  0  0
  5  9  1  0  0  0  0
  5 13  1  0  0  0  0
  5 15  2  0  0  0  0
  7 12  1  0  0  0  0
  8 12  1  0  0  0  0
 10 17  1  0  0  0  0
  6 18  1  0  0  0  0
  6 19  1  0  0  0  0
  6 20  1  0  0  0  0
  7 21  1  0  0  0  0
  7 22  1  0  0  0  0
  7 23  1  0  0  0  0
  8 24  1  0  0  0  0
  8 25  1  0  0  0  0
  8 26  1  0  0  0  0
  9 27  1  0  0  0  0
  9 28  1  0  0  0  0
 10 29  1  0  0  0  0
 10 30  1  0  0  0  0
M  CHG  1  13  -1
M  END
> <Hybrid2>
-4.755417823791504

> <Hybrid2>
-3.648147

$$$$
C20273532
  -OEChem-02152218503D

 33 34  0     1  0  0  0  0  0999 V2000
    6.1048  -27.7201   -9.7589 C   0  0  0  0  0  0  0  0  0  0  0  0
    6.9996  -26.7371  -10.2719 C   0  0  0  0  0  0  0  0  0  0  0  0
    6.7733  -28.7867   -9.1995 C   0  0  0  0  0  0  0  0  0  0  0  0
    8.3181  -27.0898  -10.0849 C   0  0  0  0  0  0  0  0  0  0  0  0
    8.8439  -24.6671  -12.2571 C   0  0  0  0  0  0  0  0  0  0  0  0
   11.9384  -26.4534  -11.3165 C   0  0  0  0  0  0  0  0  0  0  0  0
    8.7029  -25.8594  -13.1658 C   0  0  0  0  0  0  0  0  0  0  0  0
    9.5775  -26.3163  -10.4857 C   0  0  1  0  0  0  0  0  0  0  0  0
   10.5404  -27.0355  -11.4464 C   0  0  1  0  0  0  0  0  0  0  0  0
    6.0086  -22.8626   -9.4583 C   0  0  0  0  0  0  0  0  0  0  0  0
    9.5138  -23.8391  -10.0336 C   0  0  0  0  0  0  0  0  0  0  0  0
    8.2476  -23.5454   -9.2498 C   0  0  0  0  0  0  0  0  0  0  0  0
    9.2724  -24.9429  -10.9581 N   0  0  0  0  0  0  0  0  0  0  0  0
   12.0276  -25.2125  -11.5296 O   0  5  0  0  0  0  0  0  0  0  0  0
    8.5602  -23.5426  -12.6753 O   0  0  0  0  0  0  0  0  0  0  0  0
   12.8341  -27.2898  -11.0110 O   0  0  0  0  0  0  0  0  0  0  0  0
    7.2163  -23.1550  -10.1475 O   0  0  0  0  0  0  0  0  0  0  0  0
    8.4730  -28.6007   -9.2940 S   0  0  0  0  0  0  0  0  0  0  0  0
   10.2425  -26.7994  -13.2265 S   0  0  0  0  0  0  0  0  0  0  0  0
    5.0257  -27.6488   -9.7970 H   0  0  0  0  0  0  0  0  0  0  0  0
    6.6868  -25.8183  -10.7518 H   0  0  0  0  0  0  0  0  0  0  0  0
    6.3450  -29.6664   -8.7403 H   0  0  0  0  0  0  0  0  0  0  0  0
    7.9120  -26.5147  -12.7771 H   0  0  0  0  0  0  0  0  0  0  0  0
    8.3954  -25.5407  -14.1706 H   0  0  0  0  0  0  0  0  0  0  0  0
   10.1126  -26.1409   -9.4853 H   0  0  0  0  0  0  0  0  0  0  0  0
   10.6007  -28.1199  -11.2369 H   0  0  0  0  0  0  0  0  0  0  0  0
    5.2404  -22.5671  -10.1771 H   0  0  0  0  0  0  0  0  0  0  0  0
    6.1829  -22.0553   -8.7425 H   0  0  0  0  0  0  0  0  0  0  0  0
    5.6793  -23.7565   -8.9234 H   0  0  0  0  0  0  0  0  0  0  0  0
    9.8315  -22.9679  -10.6152 H   0  0  0  0  0  0  0  0  0  0  0  0
   10.3217  -24.1318   -9.3563 H   0  0  0  0  0  0  0  0  0  0  0  0
    8.4209  -22.7184   -8.5541 H   0  0  0  0  0  0  0  0  0  0  0  0
    7.9108  -24.4215   -8.6861 H   0  0  0  0  0  0  0  0  0  0  0  0
  1  2  1  0  0  0  0
  1  3  2  0  0  0  0
  2  4  2  0  0  0  0
  3 18  1  0  0  0  0
  4  8  1  0  0  0  0
  4 18  1  0  0  0  0
  5  7  1  0  0  0  0
  5 13  1  0  0  0  0
  5 15  2  0  0  0  0
  6  9  1  0  0  0  0
  6 14  1  0  0  0  0
  6 16  2  0  0  0  0
  7 19  1  0  0  0  0
  8  9  1  0  0  0  0
  8 13  1  0  0  0  0
  9 19  1  0  0  0  0
 10 17  1  0  0  0  0
 11 12  1  0  0  0  0
 11 13  1  0  0  0  0
 12 17  1  0  0  0  0
  1 20  1  0  0  0  0
  2 21  1  0  0  0  0
  3 22  1  0  0  0  0
  7 23  1  0  0  0  0
  7 24  1  0  0  0  0
  8 25  1  0  0  0  0
  9 26  1  0  0  0  0
 10 27  1  0  0  0  0
 10 28  1  0  0  0  0
 10 29  1  0  0  0  0
 11 30  1  0  0  0  0
 11 31  1  0  0  0  0
 12 32  1  0  0  0  0
 12 33  1  0  0  0  0
M  CHG  1  14  -1
M  END
> <Hybrid2>
-2.828115463256836

> <Hybrid2>
-2.828115

$$$$
C20273532
  -OEChem-02152218503D

 33 34  0     1  0  0  0  0  0999 V2000
    5.6392  -27.9118   -9.1692 C   0  0  0  0  0  0  0  0  0  0  0  0
    6.2182  -26.7702   -9.7951 C   0  0  0  0  0  0  0  0  0  0  0  0
    6.5900  -28.8385   -8.8018 C   0  0  0  0  0  0  0  0  0  0  0  0
    7.5896  -26.8678   -9.8820 C   0  0  0  0  0  0  0  0  0  0  0  0
   11.0107  -26.6446  -10.7629 C   0  0  0  0  0  0  0  0  0  0  0  0
    8.1846  -23.5446   -9.5730 C   0  0  0  0  0  0  0  0  0  0  0  0
   11.3857  -25.9017   -9.5081 C   0  0  0  0  0  0  0  0  0  0  0  0
    8.5773  -25.8669  -10.4764 C   0  0  1  0  0  0  0  0  0  0  0  0
    8.9595  -24.8359   -9.4016 C   0  0  1  0  0  0  0  0  0  0  0  0
   11.1602  -24.9925  -14.7159 C   0  0  0  0  0  0  0  0  0  0  0  0
    9.3167  -27.2280  -12.4412 C   0  0  0  0  0  0  0  0  0  0  0  0
    9.5392  -26.2857  -13.6101 C   0  0  0  0  0  0  0  0  0  0  0  0
    9.6848  -26.5576  -11.1932 N   0  0  0  0  0  0  0  0  0  0  0  0
    8.2994  -22.9928  -10.7024 O   0  5  0  0  0  0  0  0  0  0  0  0
   11.8764  -27.3164  -11.3328 O   0  0  0  0  0  0  0  0  0  0  0  0
    7.5216  -23.1863   -8.5595 O   0  0  0  0  0  0  0  0  0  0  0  0
   10.9027  -25.8832  -13.6392 O   0  0  0  0  0  0  0  0  0  0  0  0
    8.1735  -28.3311   -9.2112 S   0  0  0  0  0  0  0  0  0  0  0  0
   10.6585  -24.2618   -9.5241 S   0  0  0  0  0  0  0  0  0  0  0  0
    4.5796  -28.0469   -8.9961 H   0  0  0  0  0  0  0  0  0  0  0  0
    5.6529  -25.9220  -10.1600 H   0  0  0  0  0  0  0  0  0  0  0  0
    6.4306  -29.7892   -8.3130 H   0  0  0  0  0  0  0  0  0  0  0  0
   10.9979  -26.4488   -8.6405 H   0  0  0  0  0  0  0  0  0  0  0  0
   12.4761  -25.8536   -9.4052 H   0  0  0  0  0  0  0  0  0  0  0  0
    7.9610  -25.3636  -11.2865 H   0  0  0  0  0  0  0  0  0  0  0  0
    8.7851  -25.2251   -8.3834 H   0  0  0  0  0  0  0  0  0  0  0  0
   12.2144  -24.7048  -14.7076 H   0  0  0  0  0  0  0  0  0  0  0  0
   10.5287  -24.1062  -14.6157 H   0  0  0  0  0  0  0  0  0  0  0  0
   10.9300  -25.4970  -15.6573 H   0  0  0  0  0  0  0  0  0  0  0  0
    8.2674  -27.5319  -12.3707 H   0  0  0  0  0  0  0  0  0  0  0  0
    9.9417  -28.1199  -12.5466 H   0  0  0  0  0  0  0  0  0  0  0  0
    8.9245  -25.3882  -13.4902 H   0  0  0  0  0  0  0  0  0  0  0  0
    9.2924  -26.7626  -14.5642 H   0  0  0  0  0  0  0  0  0  0  0  0
  1  2  1  0  0  0  0
  1  3  2  0  0  0  0
  2  4  2  0  0  0  0
  3 18  1  0  0  0  0
  4  8  1  0  0  0  0
  4 18  1  0  0  0  0
  5  7  1  0  0  0  0
  5 13  1  0  0  0  0
  5 15  2  0  0  0  0
  6  9  1  0  0  0  0
  6 14  1  0  0  0  0
  6 16  2  0  0  0  0
  7 19  1  0  0  0  0
  8  9  1  0  0  0  0
  8 13  1  0  0  0  0
  9 19  1  0  0  0  0
 10 17  1  0  0  0  0
 11 12  1  0  0  0  0
 11 13  1  0  0  0  0
 12 17  1  0  0  0  0
  1 20  1  0  0  0  0
  2 21  1  0  0  0  0
  3 22  1  0  0  0  0
  7 23  1  0  0  0  0
  7 24  1  0  0  0  0
  8 25  1  0  0  0  0
  9 26  1  0  0  0  0
 10 27  1  0  0  0  0
 10 28  1  0  0  0  0
 10 29  1  0  0  0  0
 11 30  1  0  0  0  0
 11 31  1  0  0  0  0
 12 32  1  0  0  0  0
 12 33  1  0  0  0  0
M  CHG  1  14  -1
M  END
> <Hybrid2>
-2.828115463256836

> <Hybrid2>
-2.808868

$$$$
C31162872
  -OEChem-02152218503D

 42 42  0     1  0  0  0  0  0999 V2000
    9.8529  -25.4288   -9.8423 C   0  0  0  0  0  0  0  0  0  0  0  0
    9.5623  -25.5746   -8.5351 C   0  0  0  0  0  0  0  0  0  0  0  0
    8.5713  -25.3479  -10.5377 C   0  0  0  0  0  0  0  0  0  0  0  0
    6.4259  -27.6268   -8.9575 C   0  0  0  0  0  0  0  0  0  0  0  0
    5.6128  -28.7869   -9.2439 C   0  0  0  0  0  0  0  0  0  0  0  0
    6.6173  -26.6308   -9.8349 C   0  0  0  0  0  0  0  0  0  0  0  0
    5.4211  -29.7833   -8.3664 C   0  0  0  0  0  0  0  0  0  0  0  0
   11.1709  -25.3643  -10.4636 C   0  0  0  0  0  0  0  0  0  0  0  0
    7.4539  -25.4265   -9.5514 C   0  0  2  0  0  0  0  0  0  0  0  0
    6.6487  -24.1377   -9.5018 C   0  0  0  0  0  0  0  0  0  0  0  0
    3.1283  -30.7608   -8.2368 C   0  0  0  0  0  0  0  0  0  0  0  0
   12.7235  -26.9907  -13.6431 C   0  0  0  0  0  0  0  0  0  0  0  0
   14.3915  -27.7365  -11.2748 C   0  0  0  0  0  0  0  0  0  0  0  0
    4.5740  -30.9891   -8.6499 C   0  0  0  0  0  0  0  0  0  0  0  0
   11.2885  -25.8889  -11.8925 C   0  0  0  0  0  0  0  0  0  0  0  0
   12.6768  -26.4402  -12.2247 C   0  0  1  0  0  0  0  0  0  0  0  0
   10.3823  -25.6845   -7.5776 O   0  5  0  0  0  0  0  0  0  0  0  0
    8.4565  -25.2296  -11.7477 O   0  0  0  0  0  0  0  0  0  0  0  0
   12.1348  -24.8989   -9.8442 O   0  0  0  0  0  0  0  0  0  0  0  0
    8.1555  -25.6009   -8.3111 O   0  0  0  0  0  0  0  0  0  0  0  0
   12.9914  -27.5131  -11.3388 O   0  0  0  0  0  0  0  0  0  0  0  0
    6.8964  -27.5763   -7.9789 H   0  0  0  0  0  0  0  0  0  0  0  0
    5.1419  -28.8368  -10.2225 H   0  0  0  0  0  0  0  0  0  0  0  0
    6.1505  -26.6717  -10.8162 H   0  0  0  0  0  0  0  0  0  0  0  0
    5.8854  -29.7368   -7.3836 H   0  0  0  0  0  0  0  0  0  0  0  0
    5.8413  -24.2266   -8.7733 H   0  0  0  0  0  0  0  0  0  0  0  0
    6.2164  -23.9267  -10.4811 H   0  0  0  0  0  0  0  0  0  0  0  0
    7.2911  -23.3039   -9.2142 H   0  0  0  0  0  0  0  0  0  0  0  0
    3.0526  -30.5433   -7.1661 H   0  0  0  0  0  0  0  0  0  0  0  0
    2.5304  -31.6541   -8.4438 H   0  0  0  0  0  0  0  0  0  0  0  0
    2.6857  -29.9234   -8.7870 H   0  0  0  0  0  0  0  0  0  0  0  0
   11.9591  -27.7636  -13.7781 H   0  0  0  0  0  0  0  0  0  0  0  0
   12.5553  -26.2021  -14.3828 H   0  0  0  0  0  0  0  0  0  0  0  0
   13.6895  -27.4654  -13.8483 H   0  0  0  0  0  0  0  0  0  0  0  0
   14.5985  -28.5623  -10.5898 H   0  0  0  0  0  0  0  0  0  0  0  0
   14.8908  -26.8280  -10.9287 H   0  0  0  0  0  0  0  0  0  0  0  0
   14.7565  -27.9931  -12.2721 H   0  0  0  0  0  0  0  0  0  0  0  0
    4.6162  -31.2039   -9.7238 H   0  0  0  0  0  0  0  0  0  0  0  0
    4.9612  -31.8744   -8.1321 H   0  0  0  0  0  0  0  0  0  0  0  0
   10.5386  -26.6806  -12.0051 H   0  0  0  0  0  0  0  0  0  0  0  0
   11.0429  -25.0596  -12.5663 H   0  0  0  0  0  0  0  0  0  0  0  0
   13.4483  -25.6702  -12.1121 H   0  0  0  0  0  0  0  0  0  0  0  0
  1  2  2  0  0  0  0
  1  3  1  0  0  0  0
  1  8  1  0  0  0  0
  2 17  1  0  0  0  0
  2 20  1  0  0  0  0
  3  9  1  0  0  0  0
  3 18  2  0  0  0  0
  4  5  1  0  0  0  0
  4  6  2  0  0  0  0
  5  7  2  0  0  0  0
  6  9  1  0  0  0  0
  7 14  1  0  0  0  0
  8 15  1  0  0  0  0
  8 19  2  0  0  0  0
  9 10  1  0  0  0  0
  9 20  1  0  0  0  0
 11 14  1  0  0  0  0
 12 16  1  0  0  0  0
 13 21  1  0  0  0  0
 15 16  1  0  0  0  0
 16 21  1  0  0  0  0
  4 22  1  0  0  0  0
  5 23  1  0  0  0  0
  6 24  1  0  0  0  0
  7 25  1  0  0  0  0
 10 26  1  0  0  0  0
 10 27  1  0  0  0  0
 10 28  1  0  0  0  0
 11 29  1  0  0  0  0
 11 30  1  0  0  0  0
 11 31  1  0  0  0  0
 12 32  1  0  0  0  0
 12 33  1  0  0  0  0
 12 34  1  0  0  0  0
 13 35  1  0  0  0  0
 13 36  1  0  0  0  0
 13 37  1  0  0  0  0
 14 38  1  0  0  0  0
 14 39  1  0  0  0  0
 15 40  1  0  0  0  0
 15 41  1  0  0  0  0
 16 42  1  0  0  0  0
M  CHG  1  17  -1
M  END
> <Hybrid2>
-3.579380750656128

> <Hybrid2>
-3.579381

$$$$
C31162872
  -OEChem-02152218503D

 42 42  0     1  0  0  0  0  0999 V2000
   10.9807  -26.9628  -11.2207 C   0  0  0  0  0  0  0  0  0  0  0  0
    9.9152  -27.0169  -12.0431 C   0  0  0  0  0  0  0  0  0  0  0  0
   10.4582  -27.1213   -9.8663 C   0  0  0  0  0  0  0  0  0  0  0  0
    7.4366  -25.3472   -9.7418 C   0  0  0  0  0  0  0  0  0  0  0  0
    6.7938  -24.2745   -9.0171 C   0  0  0  0  0  0  0  0  0  0  0  0
    8.3080  -26.1953   -9.1760 C   0  0  0  0  0  0  0  0  0  0  0  0
    5.9222  -23.4261   -9.5828 C   0  0  0  0  0  0  0  0  0  0  0  0
   12.3818  -26.7813  -11.5833 C   0  0  0  0  0  0  0  0  0  0  0  0
    8.9782  -27.3081   -9.9129 C   0  0  2  0  0  0  0  0  0  0  0  0
    8.5640  -28.6857   -9.4205 C   0  0  0  0  0  0  0  0  0  0  0  0
    6.0579  -21.0300   -8.8977 C   0  0  0  0  0  0  0  0  0  0  0  0
   14.3787  -28.9184  -12.4542 C   0  0  0  0  0  0  0  0  0  0  0  0
   16.3021  -27.4356   -9.7480 C   0  0  0  0  0  0  0  0  0  0  0  0
    5.2437  -22.3130   -8.8392 C   0  0  0  0  0  0  0  0  0  0  0  0
   13.4218  -27.4237  -10.6686 C   0  0  0  0  0  0  0  0  0  0  0  0
   14.6903  -27.8610  -11.4044 C   0  0  1  0  0  0  0  0  0  0  0  0
    9.9181  -26.9212  -13.3048 O   0  5  0  0  0  0  0  0  0  0  0  0
   11.1503  -27.1041   -8.8603 O   0  0  0  0  0  0  0  0  0  0  0  0
   12.6907  -26.1357  -12.5918 O   0  0  0  0  0  0  0  0  0  0  0  0
    8.7026  -27.1987  -11.3176 O   0  0  0  0  0  0  0  0  0  0  0  0
   15.6085  -28.4366  -10.4768 O   0  0  0  0  0  0  0  0  0  0  0  0
    7.1894  -25.4567  -10.7947 H   0  0  0  0  0  0  0  0  0  0  0  0
    7.0410  -24.1657   -7.9641 H   0  0  0  0  0  0  0  0  0  0  0  0
    8.5614  -26.0944   -8.1234 H   0  0  0  0  0  0  0  0  0  0  0  0
    5.6669  -23.5328  -10.6350 H   0  0  0  0  0  0  0  0  0  0  0  0
    7.4789  -28.7910   -9.4668 H   0  0  0  0  0  0  0  0  0  0  0  0
    8.8869  -28.8286   -8.3881 H   0  0  0  0  0  0  0  0  0  0  0  0
    9.0188  -29.4593  -10.0413 H   0  0  0  0  0  0  0  0  0  0  0  0
    7.0502  -21.1708   -8.4561 H   0  0  0  0  0  0  0  0  0  0  0  0
    5.5504  -20.2345   -8.3427 H   0  0  0  0  0  0  0  0  0  0  0  0
    6.1895  -20.6899   -9.9306 H   0  0  0  0  0  0  0  0  0  0  0  0
   13.8837  -29.7800  -11.9930 H   0  0  0  0  0  0  0  0  0  0  0  0
   13.7272  -28.5218  -13.2387 H   0  0  0  0  0  0  0  0  0  0  0  0
   15.2978  -29.2949  -12.9169 H   0  0  0  0  0  0  0  0  0  0  0  0
   16.9957  -27.9081   -9.0481 H   0  0  0  0  0  0  0  0  0  0  0  0
   15.5843  -26.8164   -9.2041 H   0  0  0  0  0  0  0  0  0  0  0  0
   16.8629  -26.8110  -10.4473 H   0  0  0  0  0  0  0  0  0  0  0  0
    4.2587  -22.1400   -9.2875 H   0  0  0  0  0  0  0  0  0  0  0  0
    5.0738  -22.5846   -7.7908 H   0  0  0  0  0  0  0  0  0  0  0  0
   13.6749  -26.6821   -9.9020 H   0  0  0  0  0  0  0  0  0  0  0  0
   12.9473  -28.2894  -10.1917 H   0  0  0  0  0  0  0  0  0  0  0  0
   15.1842  -27.0099  -11.8866 H   0  0  0  0  0  0  0  0  0  0  0  0
  1  2  2  0  0  0  0
  1  3  1  0  0  0  0
  1  8  1  0  0  0  0
  2 17  1  0  0  0  0
  2 20  1  0  0  0  0
  3  9  1  0  0  0  0
  3 18  2  0  0  0  0
  4  5  1  0  0  0  0
  4  6  2  0  0  0  0
  5  7  2  0  0  0  0
  6  9  1  0  0  0  0
  7 14  1  0  0  0  0
  8 15  1  0  0  0  0
  8 19  2  0  0  0  0
  9 10  1  0  0  0  0
  9 20  1  0  0  0  0
 11 14  1  0  0  0  0
 12 16  1  0  0  0  0
 13 21  1  0  0  0  0
 15 16  1  0  0  0  0
 16 21  1  0  0  0  0
  4 22  1  0  0  0  0
  5 23  1  0  0  0  0
  6 24  1  0  0  0  0
  7 25  1  0  0  0  0
 10 26  1  0  0  0  0
 10 27  1  0  0  0  0
 10 28  1  0  0  0  0
 11 29  1  0  0  0  0
 11 30  1  0  0  0  0
 11 31  1  0  0  0  0
 12 32  1  0  0  0  0
 12 33  1  0  0  0  0
 12 34  1  0  0  0  0
 13 35  1  0  0  0  0
 13 36  1  0  0  0  0
 13 37  1  0  0  0  0
 14 38  1  0  0  0  0
 14 39  1  0  0  0  0
 15 40  1  0  0  0  0
 15 41  1  0  0  0  0
 16 42  1  0  0  0  0
M  CHG  1  17  -1
M  END
> <Hybrid2>
-3.579380750656128

> <Hybrid2>
-3.278365

$$$$
C33443468
  -OEChem-02152218503D

 41 42  0     1  0  0  0  0  0999 V2000
   11.7333  -27.1994  -12.4477 C   0  0  0  0  0  0  0  0  0  0  0  0
   12.1156  -26.6436  -10.1277 C   0  0  0  0  0  0  0  0  0  0  0  0
   10.3567  -27.1053  -12.2434 C   0  0  0  0  0  0  0  0  0  0  0  0
   10.7389  -26.5495   -9.9235 C   0  0  0  0  0  0  0  0  0  0  0  0
   12.6128  -26.9686  -11.3898 C   0  0  0  0  0  0  0  0  0  0  0  0
    9.8595  -26.7803  -10.9813 C   0  0  0  0  0  0  0  0  0  0  0  0
    3.8237  -27.5693  -10.2746 C   0  0  0  0  0  0  0  0  0  0  0  0
    6.5595  -26.2898   -9.4569 C   0  0  0  0  0  0  0  0  0  0  0  0
    5.4227  -29.7401   -8.6711 C   0  0  0  0  0  0  0  0  0  0  0  0
    4.2697  -28.8676   -8.1809 C   0  0  0  0  0  0  0  0  0  0  0  0
    6.5647  -28.7491   -8.8372 C   0  0  0  0  0  0  0  0  0  0  0  0
    4.4776  -27.5541   -8.9257 C   0  0  1  0  0  0  0  0  0  0  0  0
   14.7317  -28.1798  -10.7599 C   0  0  0  0  0  0  0  0  0  0  0  0
   14.8092  -25.7323  -11.3586 C   0  0  0  0  0  0  0  0  0  0  0  0
    8.0659  -26.3538   -9.4791 C   0  0  0  0  0  0  0  0  0  0  0  0
   14.0845  -27.0686  -11.6081 C   0  0  0  0  0  0  0  0  0  0  0  0
    5.9157  -27.4776   -9.1468 N   0  0  0  0  0  0  0  0  0  0  0  0
    4.1351  -28.5439  -11.0137 O   0  5  0  0  0  0  0  0  0  0  0  0
    3.0437  -26.6009  -10.4960 O   0  0  0  0  0  0  0  0  0  0  0  0
    5.9775  -25.2344   -9.7132 O   0  0  0  0  0  0  0  0  0  0  0  0
    8.5030  -26.6864  -10.7806 O   0  0  0  0  0  0  0  0  0  0  0  0
   12.1119  -27.4531  -13.4342 H   0  0  0  0  0  0  0  0  0  0  0  0
   12.7934  -26.4623   -9.2975 H   0  0  0  0  0  0  0  0  0  0  0  0
    9.6766  -27.2859  -13.0716 H   0  0  0  0  0  0  0  0  0  0  0  0
   10.3580  -26.2957   -8.9382 H   0  0  0  0  0  0  0  0  0  0  0  0
    5.6640  -30.5411   -7.9667 H   0  0  0  0  0  0  0  0  0  0  0  0
    5.1709  -30.1939   -9.6368 H   0  0  0  0  0  0  0  0  0  0  0  0
    3.3013  -29.3401   -8.3740 H   0  0  0  0  0  0  0  0  0  0  0  0
    4.3647  -28.7041   -7.1006 H   0  0  0  0  0  0  0  0  0  0  0  0
    7.1206  -28.6220   -7.9019 H   0  0  0  0  0  0  0  0  0  0  0  0
    7.2610  -29.0375   -9.6294 H   0  0  0  0  0  0  0  0  0  0  0  0
    4.1424  -26.6796   -8.3761 H   0  0  0  0  0  0  0  0  0  0  0  0
   14.5819  -28.0081   -9.6884 H   0  0  0  0  0  0  0  0  0  0  0  0
   15.8106  -28.2435  -10.9386 H   0  0  0  0  0  0  0  0  0  0  0  0
   14.2930  -29.1533  -11.0064 H   0  0  0  0  0  0  0  0  0  0  0  0
   14.6528  -25.3994  -10.3264 H   0  0  0  0  0  0  0  0  0  0  0  0
   14.4388  -24.9452  -12.0243 H   0  0  0  0  0  0  0  0  0  0  0  0
   15.8890  -25.8229  -11.5203 H   0  0  0  0  0  0  0  0  0  0  0  0
    8.4106  -27.1055   -8.7748 H   0  0  0  0  0  0  0  0  0  0  0  0
    8.4658  -25.3821   -9.2044 H   0  0  0  0  0  0  0  0  0  0  0  0
   14.2904  -27.3329  -12.6629 H   0  0  0  0  0  0  0  0  0  0  0  0
  1  3  2  0  0  0  0
  1  5  1  0  0  0  0
  2  4  1  0  0  0  0
  2  5  2  0  0  0  0
  3  6  1  0  0  0  0
  4  6  2  0  0  0  0
  5 16  1  0  0  0  0
  6 21  1  0  0  0  0
  7 12  1  0  0  0  0
  7 18  1  0  0  0  0
  7 19  2  0  0  0  0
  8 15  1  0  0  0  0
  8 17  1  0  0  0  0
  8 20  2  0  0  0  0
  9 10  1  0  0  0  0
  9 11  1  0  0  0  0
 10 12  1  0  0  0  0
 11 17  1  0  0  0  0
 12 17  1  0  0  0  0
 13 16  1  0  0  0  0
 14 16  1  0  0  0  0
 15 21  1  0  0  0  0
  1 22  1  0  0  0  0
  2 23  1  0  0  0  0
  3 24  1  0  0  0  0
  4 25  1  0  0  0  0
  9 26  1  0  0  0  0
  9 27  1  0  0  0  0
 10 28  1  0  0  0  0
 10 29  1  0  0  0  0
 11 30  1  0  0  0  0
 11 31  1  0  0  0  0
 12 32  1  0  0  0  0
 13 33  1  0  0  0  0
 13 34  1  0  0  0  0
 13 35  1  0  0  0  0
 14 36  1  0  0  0  0
 14 37  1  0  0  0  0
 14 38  1  0  0  0  0
 15 39  1  0  0  0  0
 15 40  1  0  0  0  0
 16 41  1  0  0  0  0
M  CHG  1  18  -1
M  END
> <Hybrid2>
-4.531418800354004

> <Hybrid2>
-4.531419

$$$$
C33443468
  -OEChem-02152218503D

 41 42  0     1  0  0  0  0  0999 V2000
   11.3201  -27.4560  -12.3253 C   0  0  0  0  0  0  0  0  0  0  0  0
   11.9263  -26.2730  -10.3078 C   0  0  0  0  0  0  0  0  0  0  0  0
    9.9847  -27.1030  -12.1310 C   0  0  0  0  0  0  0  0  0  0  0  0
   10.5909  -25.9200  -10.1136 C   0  0  0  0  0  0  0  0  0  0  0  0
   12.2909  -27.0410  -11.4137 C   0  0  0  0  0  0  0  0  0  0  0  0
    9.6201  -26.3350  -11.0252 C   0  0  0  0  0  0  0  0  0  0  0  0
    4.0687  -28.1072  -10.1336 C   0  0  0  0  0  0  0  0  0  0  0  0
    6.4052  -26.1587   -9.4028 C   0  0  0  0  0  0  0  0  0  0  0  0
    6.2795  -29.8053   -8.6952 C   0  0  0  0  0  0  0  0  0  0  0  0
    4.9654  -29.2872   -8.1158 C   0  0  0  0  0  0  0  0  0  0  0  0
    7.1035  -28.5399   -8.8790 C   0  0  0  0  0  0  0  0  0  0  0  0
    4.7713  -27.9488   -8.8189 C   0  0  1  0  0  0  0  0  0  0  0  0
   14.2685  -28.2949  -10.4807 C   0  0  0  0  0  0  0  0  0  0  0  0
   14.6286  -26.1910  -11.8220 C   0  0  0  0  0  0  0  0  0  0  0  0
    7.8700  -25.8145   -9.5014 C   0  0  0  0  0  0  0  0  0  0  0  0
   13.7187  -27.4178  -11.6216 C   0  0  0  0  0  0  0  0  0  0  0  0
    6.1214  -27.4829   -9.1073 N   0  0  0  0  0  0  0  0  0  0  0  0
    4.5862  -28.9443  -10.9240 O   0  5  0  0  0  0  0  0  0  0  0  0
    3.0467  -27.3794  -10.2791 O   0  0  0  0  0  0  0  0  0  0  0  0
    5.5484  -25.2931   -9.5894 O   0  0  0  0  0  0  0  0  0  0  0  0
    8.3044  -25.9861  -10.8346 O   0  0  0  0  0  0  0  0  0  0  0  0
   11.5951  -28.0546  -13.1895 H   0  0  0  0  0  0  0  0  0  0  0  0
   12.6760  -25.9453   -9.5923 H   0  0  0  0  0  0  0  0  0  0  0  0
    9.2329  -27.4291  -12.8449 H   0  0  0  0  0  0  0  0  0  0  0  0
   10.3134  -25.3214   -9.2505 H   0  0  0  0  0  0  0  0  0  0  0  0
    6.7663  -30.5284   -8.0348 H   0  0  0  0  0  0  0  0  0  0  0  0
    6.1030  -30.2870   -9.6640 H   0  0  0  0  0  0  0  0  0  0  0  0
    4.1491  -29.9981   -8.2790 H   0  0  0  0  0  0  0  0  0  0  0  0
    5.0754  -29.1299   -7.0360 H   0  0  0  0  0  0  0  0  0  0  0  0
    7.6581  -28.2903   -7.9679 H   0  0  0  0  0  0  0  0  0  0  0  0
    7.8046  -28.6114   -9.7149 H   0  0  0  0  0  0  0  0  0  0  0  0
    4.2468  -27.2101   -8.2203 H   0  0  0  0  0  0  0  0  0  0  0  0
   14.2146  -27.7805   -9.5150 H   0  0  0  0  0  0  0  0  0  0  0  0
   15.3152  -28.5678  -10.6537 H   0  0  0  0  0  0  0  0  0  0  0  0
   13.6897  -29.2216  -10.3980 H   0  0  0  0  0  0  0  0  0  0  0  0
   14.5867  -25.5365  -10.9442 H   0  0  0  0  0  0  0  0  0  0  0  0
   14.3217  -25.6028  -12.6937 H   0  0  0  0  0  0  0  0  0  0  0  0
   15.6737  -26.4841  -11.9705 H   0  0  0  0  0  0  0  0  0  0  0  0
    8.4431  -26.4623   -8.8442 H   0  0  0  0  0  0  0  0  0  0  0  0
    8.0107  -24.7779   -9.2096 H   0  0  0  0  0  0  0  0  0  0  0  0
   13.8170  -28.0222  -12.5435 H   0  0  0  0  0  0  0  0  0  0  0  0
  1  3  2  0  0  0  0
  1  5  1  0  0  0  0
  2  4  1  0  0  0  0
  2  5  2  0  0  0  0
  3  6  1  0  0  0  0
  4  6  2  0  0  0  0
  5 16  1  0  0  0  0
  6 21  1  0  0  0  0
  7 12  1  0  0  0  0
  7 18  1  0  0  0  0
  7 19  2  0  0  0  0
  8 15  1  0  0  0  0
  8 17  1  0  0  0  0
  8 20  2  0  0  0  0
  9 10  1  0  0  0  0
  9 11  1  0  0  0  0
 10 12  1  0  0  0  0
 11 17  1  0  0  0  0
 12 17  1  0  0  0  0
 13 16  1  0  0  0  0
 14 16  1  0  0  0  0
 15 21  1  0  0  0  0
  1 22  1  0  0  0  0
  2 23  1  0  0  0  0
  3 24  1  0  0  0  0
  4 25  1  0  0  0  0
  9 26  1  0  0  0  0
  9 27  1  0  0  0  0
 10 28  1  0  0  0  0
 10 29  1  0  0  0  0
 11 30  1  0  0  0  0
 11 31  1  0  0  0  0
 12 32  1  0  0  0  0
 13 33  1  0  0  0  0
 13 34  1  0  0  0  0
 13 35  1  0  0  0  0
 14 36  1  0  0  0  0
 14 37  1  0  0  0  0
 14 38  1  0  0  0  0
 15 39  1  0  0  0  0
 15 40  1  0  0  0  0
 16 41  1  0  0  0  0
M  CHG  1  18  -1
M  END
> <Hybrid2>
-4.531418800354004

> <Hybrid2>
-4.054269

$$$$
C35410887
  -OEChem-02152218503D

 41 41  0     1  0  0  0  0  0999 V2000
   10.7778  -26.6833   -9.6451 C   0  0  0  0  0  0  0  0  0  0  0  0
    9.5827  -26.4841  -11.6087 C   0  0  0  0  0  0  0  0  0  0  0  0
    7.4949  -25.3476   -9.5212 C   0  0  0  0  0  0  0  0  0  0  0  0
   11.8071  -26.7034  -10.7410 C   0  0  0  0  0  0  0  0  0  0  0  0
   11.0366  -26.3076  -12.0085 C   0  0  0  0  0  0  0  0  0  0  0  0
   10.4058  -24.3915  -13.4920 C   0  0  0  0  0  0  0  0  0  0  0  0
   12.8139  -27.0460  -13.5970 C   0  0  0  0  0  0  0  0  0  0  0  0
    4.9296  -30.2664   -8.2135 C   0  0  0  0  0  0  0  0  0  0  0  0
   11.2731  -24.8352  -12.3598 C   0  0  0  0  0  0  0  0  0  0  0  0
   11.3875  -27.2073  -13.1911 C   0  0  0  0  0  0  0  0  0  0  0  0
    5.8141  -29.6884   -9.3067 C   0  0  0  0  0  0  0  0  0  0  0  0
    6.5900  -28.4665   -8.8124 C   0  0  0  0  0  0  0  0  0  0  0  0
    7.5124  -27.9169   -9.9087 C   0  0  0  0  0  0  0  0  0  0  0  0
    8.2941  -26.6651   -9.4899 C   0  0  1  0  0  0  0  0  0  0  0  0
    9.5365  -26.5953  -10.2347 N   0  0  0  0  0  0  0  0  0  0  0  0
    6.2467  -25.4596   -9.3608 O   0  5  0  0  0  0  0  0  0  0  0  0
   11.0433  -26.7798   -8.4551 O   0  0  0  0  0  0  0  0  0  0  0  0
    8.6394  -26.4854  -12.3884 O   0  0  0  0  0  0  0  0  0  0  0  0
    8.1764  -24.3040   -9.7341 O   0  0  0  0  0  0  0  0  0  0  0  0
   12.5851  -25.9760  -10.4851 H   0  0  0  0  0  0  0  0  0  0  0  0
   12.2582  -27.6977  -10.8122 H   0  0  0  0  0  0  0  0  0  0  0  0
   10.6099  -25.0080  -14.3754 H   0  0  0  0  0  0  0  0  0  0  0  0
   10.6077  -23.3472  -13.7529 H   0  0  0  0  0  0  0  0  0  0  0  0
    9.3461  -24.5014  -13.2385 H   0  0  0  0  0  0  0  0  0  0  0  0
   12.9981  -26.0016  -13.8748 H   0  0  0  0  0  0  0  0  0  0  0  0
   13.0490  -27.6741  -14.4627 H   0  0  0  0  0  0  0  0  0  0  0  0
   13.4875  -27.3020  -12.7723 H   0  0  0  0  0  0  0  0  0  0  0  0
    4.2178  -29.5191   -7.8486 H   0  0  0  0  0  0  0  0  0  0  0  0
    4.3646  -31.1289   -8.5812 H   0  0  0  0  0  0  0  0  0  0  0  0
    5.5400  -30.5960   -7.3669 H   0  0  0  0  0  0  0  0  0  0  0  0
   11.0694  -24.2203  -11.4791 H   0  0  0  0  0  0  0  0  0  0  0  0
   12.3240  -24.6956  -12.6265 H   0  0  0  0  0  0  0  0  0  0  0  0
   11.1969  -28.2455  -12.9130 H   0  0  0  0  0  0  0  0  0  0  0  0
   10.7339  -26.9587  -14.0292 H   0  0  0  0  0  0  0  0  0  0  0  0
    6.5132  -30.4602   -9.6490 H   0  0  0  0  0  0  0  0  0  0  0  0
    5.1903  -29.4115  -10.1644 H   0  0  0  0  0  0  0  0  0  0  0  0
    5.8820  -27.6940   -8.4919 H   0  0  0  0  0  0  0  0  0  0  0  0
    7.1811  -28.7469   -7.9327 H   0  0  0  0  0  0  0  0  0  0  0  0
    8.2245  -28.7019  -10.1953 H   0  0  0  0  0  0  0  0  0  0  0  0
    6.9176  -27.6967  -10.8040 H   0  0  0  0  0  0  0  0  0  0  0  0
    8.5913  -26.7936   -8.4407 H   0  0  0  0  0  0  0  0  0  0  0  0
  1  4  1  0  0  0  0
  1 15  1  0  0  0  0
  1 17  2  0  0  0  0
  2  5  1  0  0  0  0
  2 15  1  0  0  0  0
  2 18  2  0  0  0  0
  3 14  1  0  0  0  0
  3 16  1  0  0  0  0
  3 19  2  0  0  0  0
  4  5  1  0  0  0  0
  5  9  1  0  0  0  0
  5 10  1  0  0  0  0
  6  9  1  0  0  0  0
  7 10  1  0  0  0  0
  8 11  1  0  0  0  0
 11 12  1  0  0  0  0
 12 13  1  0  0  0  0
 13 14  1  0  0  0  0
 14 15  1  0  0  0  0
  4 20  1  0  0  0  0
  4 21  1  0  0  0  0
  6 22  1  0  0  0  0
  6 23  1  0  0  0  0
  6 24  1  0  0  0  0
  7 25  1  0  0  0  0
  7 26  1  0  0  0  0
  7 27  1  0  0  0  0
  8 28  1  0  0  0  0
  8 29  1  0  0  0  0
  8 30  1  0  0  0  0
  9 31  1  0  0  0  0
  9 32  1  0  0  0  0
 10 33  1  0  0  0  0
 10 34  1  0  0  0  0
 11 35  1  0  0  0  0
 11 36  1  0  0  0  0
 12 37  1  0  0  0  0
 12 38  1  0  0  0  0
 13 39  1  0  0  0  0
 13 40  1  0  0  0  0
 14 41  1  0  0  0  0
M  CHG  1  16  -1
M  END
> <Hybrid2>
-5.11918306350708

> <Hybrid2>
-5.119183

$$$$
C35410887
  -OEChem-02152218503D

 41 41  0     1  0  0  0  0  0999 V2000
    9.5287  -26.9081  -11.4690 C   0  0  0  0  0  0  0  0  0  0  0  0
   10.7224  -26.5645   -9.5244 C   0  0  0  0  0  0  0  0  0  0  0  0
    7.3160  -25.5576   -9.6760 C   0  0  0  0  0  0  0  0  0  0  0  0
   10.9753  -26.9581  -11.8764 C   0  0  0  0  0  0  0  0  0  0  0  0
   11.7475  -26.4756  -10.6404 C   0  0  0  0  0  0  0  0  0  0  0  0
   13.9754  -27.2918  -11.4271 C   0  0  0  0  0  0  0  0  0  0  0  0
   11.0203  -24.1352  -11.1332 C   0  0  0  0  0  0  0  0  0  0  0  0
    4.6201  -29.8871   -7.6703 C   0  0  0  0  0  0  0  0  0  0  0  0
   12.9528  -27.3639  -10.3409 C   0  0  0  0  0  0  0  0  0  0  0  0
   12.1780  -25.0135  -10.7957 C   0  0  0  0  0  0  0  0  0  0  0  0
    5.7910  -29.6912   -8.6201 C   0  0  0  0  0  0  0  0  0  0  0  0
    6.4043  -28.2977   -8.4740 C   0  0  0  0  0  0  0  0  0  0  0  0
    7.6120  -28.1248   -9.4047 C   0  0  0  0  0  0  0  0  0  0  0  0
    8.2530  -26.7329   -9.3349 C   0  0  1  0  0  0  0  0  0  0  0  0
    9.4815  -26.7236  -10.1055 N   0  0  0  0  0  0  0  0  0  0  0  0
    6.8619  -25.5428  -10.8549 O   0  5  0  0  0  0  0  0  0  0  0  0
    8.5948  -27.0563  -12.2448 O   0  0  0  0  0  0  0  0  0  0  0  0
   10.9782  -26.4688   -8.3315 O   0  0  0  0  0  0  0  0  0  0  0  0
    7.1308  -24.7229   -8.7445 O   0  0  0  0  0  0  0  0  0  0  0  0
   11.2157  -27.9949  -12.1364 H   0  0  0  0  0  0  0  0  0  0  0  0
   11.1391  -26.3239  -12.7530 H   0  0  0  0  0  0  0  0  0  0  0  0
   13.5262  -27.6054  -12.3768 H   0  0  0  0  0  0  0  0  0  0  0  0
   14.8189  -27.9572  -11.2145 H   0  0  0  0  0  0  0  0  0  0  0  0
   14.3453  -26.2681  -11.5480 H   0  0  0  0  0  0  0  0  0  0  0  0
   10.5653  -24.4758  -12.0707 H   0  0  0  0  0  0  0  0  0  0  0  0
   11.3419  -23.0972  -11.2693 H   0  0  0  0  0  0  0  0  0  0  0  0
   10.2558  -24.1761  -10.3501 H   0  0  0  0  0  0  0  0  0  0  0  0
    3.8419  -29.1377   -7.8470 H   0  0  0  0  0  0  0  0  0  0  0  0
    4.1761  -30.8799   -7.7946 H   0  0  0  0  0  0  0  0  0  0  0  0
    4.9541  -29.7918   -6.6324 H   0  0  0  0  0  0  0  0  0  0  0  0
   13.4010  -27.0511   -9.3940 H   0  0  0  0  0  0  0  0  0  0  0  0
   12.6151  -28.3970  -10.2233 H   0  0  0  0  0  0  0  0  0  0  0  0
   12.6361  -24.6799   -9.8627 H   0  0  0  0  0  0  0  0  0  0  0  0
   12.9324  -24.9498  -11.5820 H   0  0  0  0  0  0  0  0  0  0  0  0
    6.5501  -30.4555   -8.4173 H   0  0  0  0  0  0  0  0  0  0  0  0
    5.4468  -29.8404   -9.6501 H   0  0  0  0  0  0  0  0  0  0  0  0
    5.6429  -27.5422   -8.6985 H   0  0  0  0  0  0  0  0  0  0  0  0
    6.7107  -28.1465   -7.4323 H   0  0  0  0  0  0  0  0  0  0  0  0
    8.3672  -28.8780   -9.1443 H   0  0  0  0  0  0  0  0  0  0  0  0
    7.3057  -28.3375  -10.4366 H   0  0  0  0  0  0  0  0  0  0  0  0
    8.5610  -26.5598   -8.2954 H   0  0  0  0  0  0  0  0  0  0  0  0
  1  4  1  0  0  0  0
  1 15  1  0  0  0  0
  1 17  2  0  0  0  0
  2  5  1  0  0  0  0
  2 15  1  0  0  0  0
  2 18  2  0  0  0  0
  3 14  1  0  0  0  0
  3 16  1  0  0  0  0
  3 19  2  0  0  0  0
  4  5  1  0  0  0  0
  5  9  1  0  0  0  0
  5 10  1  0  0  0  0
  6  9  1  0  0  0  0
  7 10  1  0  0  0  0
  8 11  1  0  0  0  0
 11 12  1  0  0  0  0
 12 13  1  0  0  0  0
 13 14  1  0  0  0  0
 14 15  1  0  0  0  0
  4 20  1  0  0  0  0
  4 21  1  0  0  0  0
  6 22  1  0  0  0  0
  6 23  1  0  0  0  0
  6 24  1  0  0  0  0
  7 25  1  0  0  0  0
  7 26  1  0  0  0  0
  7 27  1  0  0  0  0
  8 28  1  0  0  0  0
  8 29  1  0  0  0  0
  8 30  1  0  0  0  0
  9 31  1  0  0  0  0
  9 32  1  0  0  0  0
 10 33  1  0  0  0  0
 10 34  1  0  0  0  0
 11 35  1  0  0  0  0
 11 36  1  0  0  0  0
 12 37  1  0  0  0  0
 12 38  1  0  0  0  0
 13 39  1  0  0  0  0
 13 40  1  0  0  0  0
 14 41  1  0  0  0  0
M  CHG  1  16  -1
M  END
> <Hybrid2>
-5.11918306350708

> <Hybrid2>
-4.023041

$$$$
C35680968
  -OEChem-02152218503D

 42 42  0     0  0  0  0  0  0999 V2000
    7.7773  -25.4558   -9.8880 C   0  0  0  0  0  0  0  0  0  0  0  0
   15.2874  -28.1101  -10.8557 C   0  0  0  0  0  0  0  0  0  0  0  0
    9.4405  -27.1220  -10.8440 C   0  0  0  0  0  0  0  0  0  0  0  0
   10.0011  -24.7292  -10.6876 C   0  0  0  0  0  0  0  0  0  0  0  0
   10.8453  -27.4569  -10.3395 C   0  0  0  0  0  0  0  0  0  0  0  0
   11.3918  -25.1094  -10.1806 C   0  0  0  0  0  0  0  0  0  0  0  0
    6.0145  -29.5245   -9.4869 C   0  0  0  0  0  0  0  0  0  0  0  0
    5.6151  -29.4248   -7.0073 C   0  0  0  0  0  0  0  0  0  0  0  0
    4.3181  -27.9221   -8.5491 C   0  0  0  0  0  0  0  0  0  0  0  0
    6.7816  -26.5814   -9.7644 C   0  0  0  0  0  0  0  0  0  0  0  0
   13.8576  -27.6960  -11.2249 C   0  0  0  0  0  0  0  0  0  0  0  0
   13.1502  -26.7559  -10.2620 C   0  0  0  0  0  0  0  0  0  0  0  0
    5.6619  -28.6152   -8.3063 C   0  0  0  0  0  0  0  0  0  0  0  0
    9.0280  -25.7843  -10.4091 N   0  0  0  0  0  0  0  0  0  0  0  0
   11.8057  -26.4118  -10.7227 N   0  0  0  0  0  0  0  0  0  0  0  0
   15.8570  -28.8300  -11.7264 O   0  5  0  0  0  0  0  0  0  0  0  0
    7.4536  -24.3210   -9.5286 O   0  0  0  0  0  0  0  0  0  0  0  0
   15.7301  -27.6911   -9.7515 O   0  0  0  0  0  0  0  0  0  0  0  0
    6.9460  -27.3506   -8.1442 S   0  0  0  0  0  0  0  0  0  0  0  0
    9.4168  -27.1230  -11.9408 H   0  0  0  0  0  0  0  0  0  0  0  0
    8.7442  -27.8916  -10.5050 H   0  0  0  0  0  0  0  0  0  0  0  0
    9.6879  -23.7835  -10.2335 H   0  0  0  0  0  0  0  0  0  0  0  0
   10.0146  -24.5804  -11.7744 H   0  0  0  0  0  0  0  0  0  0  0  0
   10.8224  -27.5899   -9.2496 H   0  0  0  0  0  0  0  0  0  0  0  0
   11.1474  -28.4152  -10.7790 H   0  0  0  0  0  0  0  0  0  0  0  0
   12.0974  -24.3339  -10.5025 H   0  0  0  0  0  0  0  0  0  0  0  0
   11.3952  -25.1195   -9.0825 H   0  0  0  0  0  0  0  0  0  0  0  0
    6.0545  -28.9680  -10.4307 H   0  0  0  0  0  0  0  0  0  0  0  0
    6.9986  -29.9850   -9.3403 H   0  0  0  0  0  0  0  0  0  0  0  0
    5.2902  -30.3391   -9.6035 H   0  0  0  0  0  0  0  0  0  0  0  0
    5.3641  -28.7960   -6.1450 H   0  0  0  0  0  0  0  0  0  0  0  0
    6.5722  -29.9181   -6.8009 H   0  0  0  0  0  0  0  0  0  0  0  0
    4.8525  -30.2102   -7.0679 H   0  0  0  0  0  0  0  0  0  0  0  0
    4.0432  -27.2643   -7.7161 H   0  0  0  0  0  0  0  0  0  0  0  0
    4.3606  -27.3009   -9.4515 H   0  0  0  0  0  0  0  0  0  0  0  0
    3.5073  -28.6460   -8.6920 H   0  0  0  0  0  0  0  0  0  0  0  0
    6.9772  -27.3107  -10.5453 H   0  0  0  0  0  0  0  0  0  0  0  0
    5.7792  -26.1829   -9.8915 H   0  0  0  0  0  0  0  0  0  0  0  0
   13.2620  -28.6091  -11.3512 H   0  0  0  0  0  0  0  0  0  0  0  0
   13.9170  -27.2088  -12.2061 H   0  0  0  0  0  0  0  0  0  0  0  0
   13.0577  -27.1922   -9.2626 H   0  0  0  0  0  0  0  0  0  0  0  0
   13.7076  -25.8180  -10.1735 H   0  0  0  0  0  0  0  0  0  0  0  0
  1 10  1  0  0  0  0
  1 14  1  0  0  0  0
  1 17  2  0  0  0  0
  2 11  1  0  0  0  0
  2 16  1  0  0  0  0
  2 18  2  0  0  0  0
  3  5  1  0  0  0  0
  3 14  1  0  0  0  0
  4  6  1  0  0  0  0
  4 14  1  0  0  0  0
  5 15  1  0  0  0  0
  6 15  1  0  0  0  0
  7 13  1  0  0  0  0
  8 13  1  0  0  0  0
  9 13  1  0  0  0  0
 10 19  1  0  0  0  0
 11 12  1  0  0  0  0
 12 15  1  0  0  0  0
 13 19  1  0  0  0  0
  3 20  1  0  0  0  0
  3 21  1  0  0  0  0
  4 22  1  0  0  0  0
  4 23  1  0  0  0  0
  5 24  1  0  0  0  0
  5 25  1  0  0  0  0
  6 26  1  0  0  0  0
  6 27  1  0  0  0  0
  7 28  1  0  0  0  0
  7 29  1  0  0  0  0
  7 30  1  0  0  0  0
  8 31  1  0  0  0  0
  8 32  1  0  0  0  0
  8 33  1  0  0  0  0
  9 34  1  0  0  0  0
  9 35  1  0  0  0  0
  9 36  1  0  0  0  0
 10 37  1  0  0  0  0
 10 38  1  0  0  0  0
 11 39  1  0  0  0  0
 11 40  1  0  0  0  0
 12 41  1  0  0  0  0
 12 42  1  0  0  0  0
M  CHG  1  16  -1
M  END
> <Hybrid2>
-3.445561408996582

> <Hybrid2>
-3.445561

$$$$
C35680968
  -OEChem-02152218503D

 42 42  0     0  0  0  0  0  0999 V2000
    6.5847  -25.9071   -9.9301 C   0  0  0  0  0  0  0  0  0  0  0  0
   13.2666  -26.5170  -12.1284 C   0  0  0  0  0  0  0  0  0  0  0  0
    8.2704  -27.5352  -10.9118 C   0  0  0  0  0  0  0  0  0  0  0  0
    8.8761  -25.1824  -10.5102 C   0  0  0  0  0  0  0  0  0  0  0  0
    9.6278  -27.9539  -10.3438 C   0  0  0  0  0  0  0  0  0  0  0  0
   10.2181  -25.6459   -9.9447 C   0  0  0  0  0  0  0  0  0  0  0  0
    4.7006  -29.9403  -10.0052 C   0  0  0  0  0  0  0  0  0  0  0  0
    4.1300  -30.0400   -7.5593 C   0  0  0  0  0  0  0  0  0  0  0  0
    2.9814  -28.3733   -9.0494 C   0  0  0  0  0  0  0  0  0  0  0  0
    5.5559  -27.0088   -9.9729 C   0  0  0  0  0  0  0  0  0  0  0  0
   13.0737  -26.4895  -10.6072 C   0  0  0  0  0  0  0  0  0  0  0  0
   11.9378  -27.3316  -10.0489 C   0  0  0  0  0  0  0  0  0  0  0  0
    4.2876  -29.1245   -8.7768 C   0  0  0  0  0  0  0  0  0  0  0  0
    7.8607  -26.2276  -10.3914 N   0  0  0  0  0  0  0  0  0  0  0  0
   10.6377  -26.9093  -10.5684 N   0  0  0  0  0  0  0  0  0  0  0  0
   14.2704  -25.8617  -12.5330 O   0  5  0  0  0  0  0  0  0  0  0  0
    6.2639  -24.7978   -9.4963 O   0  0  0  0  0  0  0  0  0  0  0  0
   12.4249  -27.1809  -12.7931 O   0  0  0  0  0  0  0  0  0  0  0  0
    5.5872  -27.9175   -8.4183 S   0  0  0  0  0  0  0  0  0  0  0  0
    8.3241  -27.4423  -12.0036 H   0  0  0  0  0  0  0  0  0  0  0  0
    7.5337  -28.3096  -10.6892 H   0  0  0  0  0  0  0  0  0  0  0  0
    8.5546  -24.2697   -9.9980 H   0  0  0  0  0  0  0  0  0  0  0  0
    8.9697  -24.9421  -11.5765 H   0  0  0  0  0  0  0  0  0  0  0  0
    9.5250  -28.1783   -9.2737 H   0  0  0  0  0  0  0  0  0  0  0  0
    9.9369  -28.8800  -10.8433 H   0  0  0  0  0  0  0  0  0  0  0  0
   10.9630  -24.8673  -10.1491 H   0  0  0  0  0  0  0  0  0  0  0  0
   10.1439  -25.7495   -8.8539 H   0  0  0  0  0  0  0  0  0  0  0  0
    4.8203  -29.3071  -10.8921 H   0  0  0  0  0  0  0  0  0  0  0  0
    5.6605  -30.4411   -9.8325 H   0  0  0  0  0  0  0  0  0  0  0  0
    3.9669  -30.7200  -10.2412 H   0  0  0  0  0  0  0  0  0  0  0  0
    3.8341  -29.4795   -6.6647 H   0  0  0  0  0  0  0  0  0  0  0  0
    5.0581  -30.5776   -7.3318 H   0  0  0  0  0  0  0  0  0  0  0  0
    3.3548  -30.7941   -7.7397 H   0  0  0  0  0  0  0  0  0  0  0  0
    2.6644  -27.7808   -8.1831 H   0  0  0  0  0  0  0  0  0  0  0  0
    3.1023  -27.6792   -9.8894 H   0  0  0  0  0  0  0  0  0  0  0  0
    2.1655  -29.0578   -9.3095 H   0  0  0  0  0  0  0  0  0  0  0  0
    5.7884  -27.6746  -10.7991 H   0  0  0  0  0  0  0  0  0  0  0  0
    4.5748  -26.5710  -10.1329 H   0  0  0  0  0  0  0  0  0  0  0  0
   12.9409  -25.4440  -10.3010 H   0  0  0  0  0  0  0  0  0  0  0  0
   14.0154  -26.8398  -10.1665 H   0  0  0  0  0  0  0  0  0  0  0  0
   12.0627  -28.3923  -10.2882 H   0  0  0  0  0  0  0  0  0  0  0  0
   11.8945  -27.2313   -8.9598 H   0  0  0  0  0  0  0  0  0  0  0  0
  1 10  1  0  0  0  0
  1 14  1  0  0  0  0
  1 17  2  0  0  0  0
  2 11  1  0  0  0  0
  2 16  1  0  0  0  0
  2 18  2  0  0  0  0
  3  5  1  0  0  0  0
  3 14  1  0  0  0  0
  4  6  1  0  0  0  0
  4 14  1  0  0  0  0
  5 15  1  0  0  0  0
  6 15  1  0  0  0  0
  7 13  1  0  0  0  0
  8 13  1  0  0  0  0
  9 13  1  0  0  0  0
 10 19  1  0  0  0  0
 11 12  1  0  0  0  0
 12 15  1  0  0  0  0
 13 19  1  0  0  0  0
  3 20  1  0  0  0  0
  3 21  1  0  0  0  0
  4 22  1  0  0  0  0
  4 23  1  0  0  0  0
  5 24  1  0  0  0  0
  5 25  1  0  0  0  0
  6 26  1  0  0  0  0
  6 27  1  0  0  0  0
  7 28  1  0  0  0  0
  7 29  1  0  0  0  0
  7 30  1  0  0  0  0
  8 31  1  0  0  0  0
  8 32  1  0  0  0  0
  8 33  1  0  0  0  0
  9 34  1  0  0  0  0
  9 35  1  0  0  0  0
  9 36  1  0  0  0  0
 10 37  1  0  0  0  0
 10 38  1  0  0  0  0
 11 39  1  0  0  0  0
 11 40  1  0  0  0  0
 12 41  1  0  0  0  0
 12 42  1  0  0  0  0
M  CHG  1  16  -1
M  END
> <Hybrid2>
-3.445561408996582

> <Hybrid2>
-2.783673

$$$$
C35741003
  -OEChem-02152218503D

 34 36  0     1  0  0  0  0  0999 V2000
   12.0717  -26.8522  -10.8791 C   0  0  0  0  0  0  0  0  0  0  0  0
    9.9495  -27.0075  -10.4533 C   0  0  0  0  0  0  0  0  0  0  0  0
    5.8926  -27.7656   -8.4469 C   0  0  0  0  0  0  0  0  0  0  0  0
   13.9004  -28.2114  -12.1755 C   0  0  0  0  0  0  0  0  0  0  0  0
   14.5551  -27.6910  -10.9342 C   0  0  0  0  0  0  0  0  0  0  0  0
   11.1557  -26.9284  -13.9722 C   0  0  0  0  0  0  0  0  0  0  0  0
    9.6874  -27.0439  -13.7061 C   0  0  0  0  0  0  0  0  0  0  0  0
   13.4337  -26.9013  -11.5762 C   0  0  0  0  0  0  0  0  0  0  0  0
   10.6716  -27.7071  -12.7714 C   0  0  0  0  0  0  0  0  0  0  0  0
    7.6162  -24.6970  -10.2064 C   0  0  0  0  0  0  0  0  0  0  0  0
    6.1120  -26.4100   -9.1320 C   0  0  0  0  0  0  0  0  0  0  0  0
    7.5495  -26.0618   -9.5266 C   0  0  1  0  0  0  0  0  0  0  0  0
   11.8870  -26.4505   -9.6418 N   0  0  0  0  0  0  0  0  0  0  0  0
   10.5368  -26.5493   -9.3709 N   0  0  0  0  0  0  0  0  0  0  0  0
   10.8784  -27.2122  -11.4280 N   0  0  0  0  0  0  0  0  0  0  0  0
    4.8185  -28.3656   -8.7277 O   0  5  0  0  0  0  0  0  0  0  0  0
    6.8226  -28.1093   -7.6619 O   0  0  0  0  0  0  0  0  0  0  0  0
    8.2271  -27.3242  -10.6645 S   0  0  0  0  0  0  0  0  0  0  0  0
   14.4645  -28.1715  -13.0993 H   0  0  0  0  0  0  0  0  0  0  0  0
   13.2616  -29.0812  -12.0807 H   0  0  0  0  0  0  0  0  0  0  0  0
   14.3561  -28.2093  -10.0038 H   0  0  0  0  0  0  0  0  0  0  0  0
   15.5615  -27.2992  -11.0195 H   0  0  0  0  0  0  0  0  0  0  0  0
   11.5636  -27.4899  -14.8040 H   0  0  0  0  0  0  0  0  0  0  0  0
   11.6236  -25.9653  -13.8096 H   0  0  0  0  0  0  0  0  0  0  0  0
    9.1665  -26.1581  -13.3632 H   0  0  0  0  0  0  0  0  0  0  0  0
    9.1039  -27.6828  -14.3578 H   0  0  0  0  0  0  0  0  0  0  0  0
   13.7150  -25.9946  -12.1052 H   0  0  0  0  0  0  0  0  0  0  0  0
   10.7467  -28.7874  -12.8269 H   0  0  0  0  0  0  0  0  0  0  0  0
    6.9810  -24.6852  -11.0992 H   0  0  0  0  0  0  0  0  0  0  0  0
    8.6360  -24.4613  -10.5310 H   0  0  0  0  0  0  0  0  0  0  0  0
    7.2704  -23.8938   -9.5456 H   0  0  0  0  0  0  0  0  0  0  0  0
    5.6896  -25.6174   -8.4996 H   0  0  0  0  0  0  0  0  0  0  0  0
    5.4935  -26.4387  -10.0392 H   0  0  0  0  0  0  0  0  0  0  0  0
    8.1924  -26.0438   -8.6399 H   0  0  0  0  0  0  0  0  0  0  0  0
  1  8  1  0  0  0  0
  1 13  2  0  0  0  0
  1 15  1  0  0  0  0
  2 14  2  0  0  0  0
  2 15  1  0  0  0  0
  2 18  1  0  0  0  0
  3 11  1  0  0  0  0
  3 16  1  0  0  0  0
  3 17  2  0  0  0  0
  4  5  1  0  0  0  0
  4  8  1  0  0  0  0
  5  8  1  0  0  0  0
  6  7  1  0  0  0  0
  6  9  1  0  0  0  0
  7  9  1  0  0  0  0
  9 15  1  0  0  0  0
 10 12  1  0  0  0  0
 11 12  1  0  0  0  0
 12 18  1  0  0  0  0
 13 14  1  0  0  0  0
  4 19  1  0  0  0  0
  4 20  1  0  0  0  0
  5 21  1  0  0  0  0
  5 22  1  0  0  0  0
  6 23  1  0  0  0  0
  6 24  1  0  0  0  0
  7 25  1  0  0  0  0
  7 26  1  0  0  0  0
  8 27  1  0  0  0  0
  9 28  1  0  0  0  0
 10 29  1  0  0  0  0
 10 30  1  0  0  0  0
 10 31  1  0  0  0  0
 11 32  1  0  0  0  0
 11 33  1  0  0  0  0
 12 34  1  0  0  0  0
M  CHG  1  16  -1
M  END
> <Hybrid2>
-4.162836074829102

> <Hybrid2>
-4.162836

$$$$
C35741003
  -OEChem-02152218503D

 34 36  0     1  0  0  0  0  0999 V2000
   12.0142  -26.9492  -10.3872 C   0  0  0  0  0  0  0  0  0  0  0  0
    9.9303  -27.3181   -9.9074 C   0  0  0  0  0  0  0  0  0  0  0  0
    6.0298  -28.5583   -7.8320 C   0  0  0  0  0  0  0  0  0  0  0  0
   13.9044  -28.0558  -11.8275 C   0  0  0  0  0  0  0  0  0  0  0  0
   14.5570  -27.5602  -10.5750 C   0  0  0  0  0  0  0  0  0  0  0  0
   10.9956  -26.9077  -13.4487 C   0  0  0  0  0  0  0  0  0  0  0  0
    9.5534  -27.1691  -13.1458 C   0  0  0  0  0  0  0  0  0  0  0  0
   13.3490  -26.8331  -11.1277 C   0  0  0  0  0  0  0  0  0  0  0  0
   10.6246  -27.8014  -12.2884 C   0  0  0  0  0  0  0  0  0  0  0  0
    7.4174  -25.2431   -9.4344 C   0  0  0  0  0  0  0  0  0  0  0  0
    6.1066  -27.1475   -8.4312 C   0  0  0  0  0  0  0  0  0  0  0  0
    7.4934  -26.6493   -8.8458 C   0  0  1  0  0  0  0  0  0  0  0  0
   11.8411  -26.6454   -9.1207 N   0  0  0  0  0  0  0  0  0  0  0  0
   10.5152  -26.8801   -8.8154 N   0  0  0  0  0  0  0  0  0  0  0  0
   10.8371  -27.3772  -10.9218 N   0  0  0  0  0  0  0  0  0  0  0  0
    5.0018  -29.2315   -8.1191 O   0  5  0  0  0  0  0  0  0  0  0  0
    7.0142  -28.8681   -7.1009 O   0  0  0  0  0  0  0  0  0  0  0  0
    8.2350  -27.7714  -10.0861 S   0  0  0  0  0  0  0  0  0  0  0  0
   14.4288  -27.9072  -12.7637 H   0  0  0  0  0  0  0  0  0  0  0  0
   13.3467  -28.9829  -11.7715 H   0  0  0  0  0  0  0  0  0  0  0  0
   14.4375  -28.1526   -9.6758 H   0  0  0  0  0  0  0  0  0  0  0  0
   15.5221  -27.0765  -10.6649 H   0  0  0  0  0  0  0  0  0  0  0  0
   11.4196  -27.3766  -14.3284 H   0  0  0  0  0  0  0  0  0  0  0  0
   11.3845  -25.9194  -13.2365 H   0  0  0  0  0  0  0  0  0  0  0  0
    8.9712  -26.3566  -12.7284 H   0  0  0  0  0  0  0  0  0  0  0  0
    9.0036  -27.8140  -13.8204 H   0  0  0  0  0  0  0  0  0  0  0  0
   13.5317  -25.8731  -11.6032 H   0  0  0  0  0  0  0  0  0  0  0  0
   10.7903  -28.8651  -12.4184 H   0  0  0  0  0  0  0  0  0  0  0  0
    6.7513  -25.2303  -10.3043 H   0  0  0  0  0  0  0  0  0  0  0  0
    8.4006  -24.8981   -9.7739 H   0  0  0  0  0  0  0  0  0  0  0  0
    7.0282  -24.5176   -8.7109 H   0  0  0  0  0  0  0  0  0  0  0  0
    5.6410  -26.4374   -7.7344 H   0  0  0  0  0  0  0  0  0  0  0  0
    5.4600  -27.1726   -9.3188 H   0  0  0  0  0  0  0  0  0  0  0  0
    8.1644  -26.6314   -7.9802 H   0  0  0  0  0  0  0  0  0  0  0  0
  1  8  1  0  0  0  0
  1 13  2  0  0  0  0
  1 15  1  0  0  0  0
  2 14  2  0  0  0  0
  2 15  1  0  0  0  0
  2 18  1  0  0  0  0
  3 11  1  0  0  0  0
  3 16  1  0  0  0  0
  3 17  2  0  0  0  0
  4  5  1  0  0  0  0
  4  8  1  0  0  0  0
  5  8  1  0  0  0  0
  6  7  1  0  0  0  0
  6  9  1  0  0  0  0
  7  9  1  0  0  0  0
  9 15  1  0  0  0  0
 10 12  1  0  0  0  0
 11 12  1  0  0  0  0
 12 18  1  0  0  0  0
 13 14  1  0  0  0  0
  4 19  1  0  0  0  0
  4 20  1  0  0  0  0
  5 21  1  0  0  0  0
  5 22  1  0  0  0  0
  6 23  1  0  0  0  0
  6 24  1  0  0  0  0
  7 25  1  0  0  0  0
  7 26  1  0  0  0  0
  8 27  1  0  0  0  0
  9 28  1  0  0  0  0
 10 29  1  0  0  0  0
 10 30  1  0  0  0  0
 10 31  1  0  0  0  0
 11 32  1  0  0  0  0
 11 33  1  0  0  0  0
 12 34  1  0  0  0  0
M  CHG  1  16  -1
M  END
> <Hybrid2>
-4.162836074829102

> <Hybrid2>
-3.806899

$$$$
C36132890
  -OEChem-02152218503D

 38 38  0     1  0  0  0  0  0999 V2000
    6.6403  -29.8827   -8.6570 C   0  0  0  0  0  0  0  0  0  0  0  0
   10.0543  -27.3764  -13.5481 C   0  0  0  0  0  0  0  0  0  0  0  0
   11.0083  -26.4589  -13.3365 C   0  0  0  0  0  0  0  0  0  0  0  0
    8.6169  -26.3253  -10.8342 C   0  0  0  0  0  0  0  0  0  0  0  0
   11.2451  -26.4251   -9.5171 C   0  0  0  0  0  0  0  0  0  0  0  0
    9.3290  -28.0875  -12.4402 C   0  0  0  0  0  0  0  0  0  0  0  0
   11.4834  -26.0677  -11.9681 C   0  0  0  0  0  0  0  0  0  0  0  0
    9.5657  -27.4746  -11.0502 C   0  0  1  0  0  0  0  0  0  0  0  0
   11.0273  -27.0482  -10.8855 C   0  0  2  0  0  0  0  0  0  0  0  0
    5.8159  -25.2047  -10.6645 C   0  0  0  0  0  0  0  0  0  0  0  0
    7.4716  -24.1414   -9.0916 C   0  0  0  0  0  0  0  0  0  0  0  0
    6.7084  -28.6822   -9.5034 C   0  0  0  0  0  0  0  0  0  0  0  0
    7.6605  -27.6361   -8.9333 C   0  0  0  0  0  0  0  0  0  0  0  0
    6.7295  -25.4161   -9.4659 C   0  0  0  0  0  0  0  0  0  0  0  0
    6.5850  -30.8309   -7.9906 N   0  0  0  0  0  0  0  0  0  0  0  0
    7.7054  -26.4549   -9.7857 N   0  0  0  0  0  0  0  0  0  0  0  0
   10.5881  -25.3706   -9.2943 O   0  5  0  0  0  0  0  0  0  0  0  0
    8.6844  -25.3415  -11.5758 O   0  0  0  0  0  0  0  0  0  0  0  0
   12.0586  -27.0450   -8.7762 O   0  0  0  0  0  0  0  0  0  0  0  0
    9.7823  -27.6324  -14.5690 H   0  0  0  0  0  0  0  0  0  0  0  0
   11.4627  -25.9620  -14.1867 H   0  0  0  0  0  0  0  0  0  0  0  0
    8.2558  -28.1118  -12.6845 H   0  0  0  0  0  0  0  0  0  0  0  0
    9.6535  -29.1393  -12.4219 H   0  0  0  0  0  0  0  0  0  0  0  0
   12.5741  -26.0368  -11.9896 H   0  0  0  0  0  0  0  0  0  0  0  0
   11.1296  -25.0599  -11.7463 H   0  0  0  0  0  0  0  0  0  0  0  0
    9.3355  -28.2223  -10.2980 H   0  0  0  0  0  0  0  0  0  0  0  0
   11.6723  -27.9500  -10.9064 H   0  0  0  0  0  0  0  0  0  0  0  0
    6.3861  -24.8611  -11.5337 H   0  0  0  0  0  0  0  0  0  0  0  0
    5.2974  -26.1298  -10.9403 H   0  0  0  0  0  0  0  0  0  0  0  0
    5.0508  -24.4528  -10.4420 H   0  0  0  0  0  0  0  0  0  0  0  0
    8.0706  -23.7792   -9.9342 H   0  0  0  0  0  0  0  0  0  0  0  0
    8.1459  -24.3166   -8.2469 H   0  0  0  0  0  0  0  0  0  0  0  0
    6.7771  -23.3408   -8.8134 H   0  0  0  0  0  0  0  0  0  0  0  0
    5.7059  -28.2453   -9.5803 H   0  0  0  0  0  0  0  0  0  0  0  0
    7.0149  -28.9631  -10.5178 H   0  0  0  0  0  0  0  0  0  0  0  0
    7.3190  -27.3334   -7.9380 H   0  0  0  0  0  0  0  0  0  0  0  0
    8.6715  -28.0450   -8.8268 H   0  0  0  0  0  0  0  0  0  0  0  0
    6.1386  -25.7590   -8.6097 H   0  0  0  0  0  0  0  0  0  0  0  0
  1 12  1  0  0  0  0
  1 15  3  0  0  0  0
  2  3  2  0  0  0  0
  2  6  1  0  0  0  0
  3  7  1  0  0  0  0
  4  8  1  0  0  0  0
  4 16  1  0  0  0  0
  4 18  2  0  0  0  0
  5  9  1  0  0  0  0
  5 17  1  0  0  0  0
  5 19  2  0  0  0  0
  6  8  1  0  0  0  0
  7  9  1  0  0  0  0
  8  9  1  0  0  0  0
 10 14  1  0  0  0  0
 11 14  1  0  0  0  0
 12 13  1  0  0  0  0
 13 16  1  0  0  0  0
 14 16  1  0  0  0  0
  2 20  1  0  0  0  0
  3 21  1  0  0  0  0
  6 22  1  0  0  0  0
  6 23  1  0  0  0  0
  7 24  1  0  0  0  0
  7 25  1  0  0  0  0
  8 26  1  0  0  0  0
  9 27  1  0  0  0  0
 10 28  1  0  0  0  0
 10 29  1  0  0  0  0
 10 30  1  0  0  0  0
 11 31  1  0  0  0  0
 11 32  1  0  0  0  0
 11 33  1  0  0  0  0
 12 34  1  0  0  0  0
 12 35  1  0  0  0  0
 13 36  1  0  0  0  0
 13 37  1  0  0  0  0
 14 38  1  0  0  0  0
M  CHG  1  17  -1
M  END
> <Hybrid2>
-3.73453688621521

> <Hybrid2>
-3.734537

$$$$
C36132890
  -OEChem-02152218503D

 38 38  0     1  0  0  0  0  0999 V2000
    7.3375  -30.6263   -8.7633 C   0  0  0  0  0  0  0  0  0  0  0  0
   10.3802  -27.4571  -13.5128 C   0  0  0  0  0  0  0  0  0  0  0  0
   11.2131  -26.4397  -13.2523 C   0  0  0  0  0  0  0  0  0  0  0  0
    8.8396  -26.7392  -10.7473 C   0  0  0  0  0  0  0  0  0  0  0  0
   11.4678  -26.5782   -9.4365 C   0  0  0  0  0  0  0  0  0  0  0  0
    9.7566  -28.3110  -12.4446 C   0  0  0  0  0  0  0  0  0  0  0  0
   11.6441  -26.0648  -11.8649 C   0  0  0  0  0  0  0  0  0  0  0  0
    9.9234  -27.7475  -11.0238 C   0  0  1  0  0  0  0  0  0  0  0  0
   11.3212  -27.1506  -10.8362 C   0  0  2  0  0  0  0  0  0  0  0  0
    5.9214  -25.9891  -10.5194 C   0  0  0  0  0  0  0  0  0  0  0  0
    7.4409  -24.8113   -8.8915 C   0  0  0  0  0  0  0  0  0  0  0  0
    7.2495  -29.3837   -9.5445 C   0  0  0  0  0  0  0  0  0  0  0  0
    8.0668  -28.2581   -8.9193 C   0  0  0  0  0  0  0  0  0  0  0  0
    6.8619  -26.1473   -9.3334 C   0  0  0  0  0  0  0  0  0  0  0  0
    7.4056  -31.6079   -8.1482 N   0  0  0  0  0  0  0  0  0  0  0  0
    7.9580  -27.0373   -9.7076 N   0  0  0  0  0  0  0  0  0  0  0  0
   10.6854  -25.6276   -9.1581 O   0  5  0  0  0  0  0  0  0  0  0  0
    8.7788  -25.7170  -11.4356 O   0  0  0  0  0  0  0  0  0  0  0  0
   12.3572  -27.1296   -8.7292 O   0  0  0  0  0  0  0  0  0  0  0  0
   10.1359  -27.6909  -14.5460 H   0  0  0  0  0  0  0  0  0  0  0  0
   11.5963  -25.8456  -14.0748 H   0  0  0  0  0  0  0  0  0  0  0  0
    8.6934  -28.4567  -12.6902 H   0  0  0  0  0  0  0  0  0  0  0  0
   10.2103  -29.3133  -12.4821 H   0  0  0  0  0  0  0  0  0  0  0  0
   12.7222  -25.8964  -11.8844 H   0  0  0  0  0  0  0  0  0  0  0  0
   11.1683  -25.1225  -11.5900 H   0  0  0  0  0  0  0  0  0  0  0  0
    9.7933  -28.5569  -10.3126 H   0  0  0  0  0  0  0  0  0  0  0  0
   12.0738  -27.9620  -10.9047 H   0  0  0  0  0  0  0  0  0  0  0  0
    6.4387  -25.5313  -11.3688 H   0  0  0  0  0  0  0  0  0  0  0  0
    5.5212  -26.9561  -10.8442 H   0  0  0  0  0  0  0  0  0  0  0  0
    5.0697  -25.3518  -10.2575 H   0  0  0  0  0  0  0  0  0  0  0  0
    7.9845  -24.3328   -9.7135 H   0  0  0  0  0  0  0  0  0  0  0  0
    8.1371  -24.9449   -8.0571 H   0  0  0  0  0  0  0  0  0  0  0  0
    6.6534  -24.1198   -8.5714 H   0  0  0  0  0  0  0  0  0  0  0  0
    6.1998  -29.0725   -9.5985 H   0  0  0  0  0  0  0  0  0  0  0  0
    7.5825  -29.5700  -10.5723 H   0  0  0  0  0  0  0  0  0  0  0  0
    7.6963  -28.0536   -7.9094 H   0  0  0  0  0  0  0  0  0  0  0  0
    9.1216  -28.5422   -8.8343 H   0  0  0  0  0  0  0  0  0  0  0  0
    6.3239  -26.6064   -8.4969 H   0  0  0  0  0  0  0  0  0  0  0  0
  1 12  1  0  0  0  0
  1 15  3  0  0  0  0
  2  3  2  0  0  0  0
  2  6  1  0  0  0  0
  3  7  1  0  0  0  0
  4  8  1  0  0  0  0
  4 16  1  0  0  0  0
  4 18  2  0  0  0  0
  5  9  1  0  0  0  0
  5 17  1  0  0  0  0
  5 19  2  0  0  0  0
  6  8  1  0  0  0  0
  7  9  1  0  0  0  0
  8  9  1  0  0  0  0
 10 14  1  0  0  0  0
 11 14  1  0  0  0  0
 12 13  1  0  0  0  0
 13 16  1  0  0  0  0
 14 16  1  0  0  0  0
  2 20  1  0  0  0  0
  3 21  1  0  0  0  0
  6 22  1  0  0  0  0
  6 23  1  0  0  0  0
  7 24  1  0  0  0  0
  7 25  1  0  0  0  0
  8 26  1  0  0  0  0
  9 27  1  0  0  0  0
 10 28  1  0  0  0  0
 10 29  1  0  0  0  0
 10 30  1  0  0  0  0
 11 31  1  0  0  0  0
 11 32  1  0  0  0  0
 11 33  1  0  0  0  0
 12 34  1  0  0  0  0
 12 35  1  0  0  0  0
 13 36  1  0  0  0  0
 13 37  1  0  0  0  0
 14 38  1  0  0  0  0
M  CHG  1  17  -1
M  END
> <Hybrid2>
-3.73453688621521

> <Hybrid2>
-3.633634

$$$$
C36889369
  -OEChem-02152218503D

 46 46  0     1  0  0  0  0  0999 V2000
   12.2794  -24.9066  -12.6314 C   0  0  0  0  0  0  0  0  0  0  0  0
   10.0586  -26.7359  -11.1954 C   0  0  0  0  0  0  0  0  0  0  0  0
   13.4387  -27.0856  -12.5969 C   0  0  0  0  0  0  0  0  0  0  0  0
   12.3691  -27.5253  -10.5032 C   0  0  0  0  0  0  0  0  0  0  0  0
   12.0750  -26.4096  -12.6187 C   0  0  1  0  0  0  0  0  0  0  0  0
   13.7379  -27.2404  -11.1063 C   0  0  1  0  0  0  0  0  0  0  0  0
    7.6800  -25.6950   -9.4269 C   0  0  0  0  0  0  0  0  0  0  0  0
    4.9867  -27.5690   -8.1438 C   0  0  0  0  0  0  0  0  0  0  0  0
    5.6229  -29.9562   -8.5627 C   0  0  0  0  0  0  0  0  0  0  0  0
    5.5568  -28.3274  -10.4519 C   0  0  0  0  0  0  0  0  0  0  0  0
   15.2827  -28.1947   -9.6262 C   0  0  0  0  0  0  0  0  0  0  0  0
    9.5324  -27.3251   -9.9111 C   0  0  0  0  0  0  0  0  0  0  0  0
    7.3976  -28.1094   -8.7632 C   0  0  0  0  0  0  0  0  0  0  0  0
    8.0077  -27.1458   -9.8115 C   0  0  1  0  0  0  0  0  0  0  0  0
    5.9036  -28.4998   -8.9585 C   0  0  0  0  0  0  0  0  0  0  0  0
   11.4215  -26.8707  -11.3998 N   0  0  0  0  0  0  0  0  0  0  0  0
   12.9711  -24.4486  -11.6801 O   0  5  0  0  0  0  0  0  0  0  0  0
   11.7287  -24.3053  -13.5960 O   0  0  0  0  0  0  0  0  0  0  0  0
    9.2948  -26.1738  -11.9820 O   0  0  0  0  0  0  0  0  0  0  0  0
   14.6410  -28.3060  -10.8888 O   0  0  0  0  0  0  0  0  0  0  0  0
   13.4081  -28.0536  -13.1080 H   0  0  0  0  0  0  0  0  0  0  0  0
   14.2119  -26.4659  -13.0676 H   0  0  0  0  0  0  0  0  0  0  0  0
   12.1505  -28.5961  -10.4192 H   0  0  0  0  0  0  0  0  0  0  0  0
   12.2608  -27.0518   -9.5187 H   0  0  0  0  0  0  0  0  0  0  0  0
   11.4657  -26.7161  -13.4773 H   0  0  0  0  0  0  0  0  0  0  0  0
   14.1891  -26.3147  -10.6932 H   0  0  0  0  0  0  0  0  0  0  0  0
    8.0971  -25.4389   -8.4476 H   0  0  0  0  0  0  0  0  0  0  0  0
    6.5962  -25.5466   -9.3689 H   0  0  0  0  0  0  0  0  0  0  0  0
    8.0802  -24.9887  -10.1625 H   0  0  0  0  0  0  0  0  0  0  0  0
    5.1486  -26.5151   -8.3900 H   0  0  0  0  0  0  0  0  0  0  0  0
    3.9303  -27.7971   -8.3247 H   0  0  0  0  0  0  0  0  0  0  0  0
    5.1692  -27.6802   -7.0685 H   0  0  0  0  0  0  0  0  0  0  0  0
    6.2543  -30.6567   -9.1188 H   0  0  0  0  0  0  0  0  0  0  0  0
    4.5752  -30.2198   -8.7437 H   0  0  0  0  0  0  0  0  0  0  0  0
    5.8228  -30.1199   -7.4972 H   0  0  0  0  0  0  0  0  0  0  0  0
    6.1833  -28.9706  -11.0802 H   0  0  0  0  0  0  0  0  0  0  0  0
    5.7084  -27.2919  -10.7770 H   0  0  0  0  0  0  0  0  0  0  0  0
    4.5107  -28.5875  -10.6502 H   0  0  0  0  0  0  0  0  0  0  0  0
   15.9716  -29.0322   -9.4917 H   0  0  0  0  0  0  0  0  0  0  0  0
   14.5309  -28.1964   -8.8329 H   0  0  0  0  0  0  0  0  0  0  0  0
   15.8422  -27.2568   -9.5933 H   0  0  0  0  0  0  0  0  0  0  0  0
   10.0478  -26.8113   -9.0957 H   0  0  0  0  0  0  0  0  0  0  0  0
    9.8108  -28.3837   -9.8738 H   0  0  0  0  0  0  0  0  0  0  0  0
    7.5295  -27.6760   -7.7622 H   0  0  0  0  0  0  0  0  0  0  0  0
    7.9776  -29.0429   -8.7516 H   0  0  0  0  0  0  0  0  0  0  0  0
    7.5593  -27.3219  -10.7951 H   0  0  0  0  0  0  0  0  0  0  0  0
  1  5  1  0  0  0  0
  1 17  1  0  0  0  0
  1 18  2  0  0  0  0
  2 12  1  0  0  0  0
  2 16  1  0  0  0  0
  2 19  2  0  0  0  0
  3  5  1  0  0  0  0
  3  6  1  0  0  0  0
  4  6  1  0  0  0  0
  4 16  1  0  0  0  0
  5 16  1  0  0  0  0
  6 20  1  0  0  0  0
  7 14  1  0  0  0  0
  8 15  1  0  0  0  0
  9 15  1  0  0  0  0
 10 15  1  0  0  0  0
 11 20  1  0  0  0  0
 12 14  1  0  0  0  0
 13 14  1  0  0  0  0
 13 15  1  0  0  0  0
  3 21  1  0  0  0  0
  3 22  1  0  0  0  0
  4 23  1  0  0  0  0
  4 24  1  0  0  0  0
  5 25  1  0  0  0  0
  6 26  1  0  0  0  0
  7 27  1  0  0  0  0
  7 28  1  0  0  0  0
  7 29  1  0  0  0  0
  8 30  1  0  0  0  0
  8 31  1  0  0  0  0
  8 32  1  0  0  0  0
  9 33  1  0  0  0  0
  9 34  1  0  0  0  0
  9 35  1  0  0  0  0
 10 36  1  0  0  0  0
 10 37  1  0  0  0  0
 10 38  1  0  0  0  0
 11 39  1  0  0  0  0
 11 40  1  0  0  0  0
 11 41  1  0  0  0  0
 12 42  1  0  0  0  0
 12 43  1  0  0  0  0
 13 44  1  0  0  0  0
 13 45  1  0  0  0  0
 14 46  1  0  0  0  0
M  CHG  1  17  -1
M  END
> <Hybrid2>
-4.896705627441406

> <Hybrid2>
-4.896706

$$$$
C36889369
  -OEChem-02152218503D

 46 46  0     1  0  0  0  0  0999 V2000
   12.0957  -25.2918  -13.1786 C   0  0  0  0  0  0  0  0  0  0  0  0
   10.4227  -27.0783  -11.2614 C   0  0  0  0  0  0  0  0  0  0  0  0
   13.9782  -26.3583  -12.0284 C   0  0  0  0  0  0  0  0  0  0  0  0
   12.6813  -26.9431  -10.1067 C   0  0  0  0  0  0  0  0  0  0  0  0
   12.5328  -26.5648  -12.4847 C   0  0  1  0  0  0  0  0  0  0  0  0
   14.0590  -27.1387  -10.7212 C   0  0  1  0  0  0  0  0  0  0  0  0
    7.5587  -26.4207  -10.1505 C   0  0  0  0  0  0  0  0  0  0  0  0
    5.2458  -28.6668   -8.7301 C   0  0  0  0  0  0  0  0  0  0  0  0
    6.5471  -30.7811   -8.3898 C   0  0  0  0  0  0  0  0  0  0  0  0
    6.4306  -29.7321  -10.6508 C   0  0  0  0  0  0  0  0  0  0  0  0
   14.7828  -29.2010   -9.8551 C   0  0  0  0  0  0  0  0  0  0  0  0
    9.8274  -27.4839   -9.9368 C   0  0  0  0  0  0  0  0  0  0  0  0
    7.7873  -28.5854   -8.8810 C   0  0  0  0  0  0  0  0  0  0  0  0
    8.3191  -27.7534  -10.0746 C   0  0  1  0  0  0  0  0  0  0  0  0
    6.5128  -29.4411   -9.1379 C   0  0  0  0  0  0  0  0  0  0  0  0
   11.7876  -26.8395  -11.2591 N   0  0  0  0  0  0  0  0  0  0  0  0
   12.1764  -24.2428  -12.4813 O   0  5  0  0  0  0  0  0  0  0  0  0
   11.7053  -25.4452  -14.3699 O   0  0  0  0  0  0  0  0  0  0  0  0
    9.7060  -26.9787  -12.2588 O   0  0  0  0  0  0  0  0  0  0  0  0
   14.2561  -28.5234  -10.9872 O   0  0  0  0  0  0  0  0  0  0  0  0
   14.6822  -26.7380  -12.7766 H   0  0  0  0  0  0  0  0  0  0  0  0
   14.1994  -25.2994  -11.8459 H   0  0  0  0  0  0  0  0  0  0  0  0
   12.3797  -27.7656   -9.4533 H   0  0  0  0  0  0  0  0  0  0  0  0
   12.6169  -25.9939   -9.5643 H   0  0  0  0  0  0  0  0  0  0  0  0
   12.4295  -27.4204  -13.1608 H   0  0  0  0  0  0  0  0  0  0  0  0
   14.8654  -26.7893  -10.0736 H   0  0  0  0  0  0  0  0  0  0  0  0
    7.6965  -25.8314   -9.2382 H   0  0  0  0  0  0  0  0  0  0  0  0
    6.4836  -26.5959  -10.2665 H   0  0  0  0  0  0  0  0  0  0  0  0
    7.8977  -25.8175  -10.9998 H   0  0  0  0  0  0  0  0  0  0  0  0
    5.1742  -27.7003   -9.2382 H   0  0  0  0  0  0  0  0  0  0  0  0
    4.3406  -29.2375   -8.9660 H   0  0  0  0  0  0  0  0  0  0  0  0
    5.2380  -28.4656   -7.6525 H   0  0  0  0  0  0  0  0  0  0  0  0
    7.4340  -31.3682   -8.6494 H   0  0  0  0  0  0  0  0  0  0  0  0
    5.6592  -31.3819   -8.6148 H   0  0  0  0  0  0  0  0  0  0  0  0
    6.5713  -30.6254   -7.3048 H   0  0  0  0  0  0  0  0  0  0  0  0
    7.3120  -30.2843  -10.9957 H   0  0  0  0  0  0  0  0  0  0  0  0
    6.3693  -28.8039  -11.2302 H   0  0  0  0  0  0  0  0  0  0  0  0
    5.5468  -30.3332  -10.8931 H   0  0  0  0  0  0  0  0  0  0  0  0
   14.9211  -30.2583  -10.0940 H   0  0  0  0  0  0  0  0  0  0  0  0
   14.0950  -29.0938   -9.0125 H   0  0  0  0  0  0  0  0  0  0  0  0
   15.7475  -28.7597   -9.5937 H   0  0  0  0  0  0  0  0  0  0  0  0
   10.0235  -26.6645   -9.2405 H   0  0  0  0  0  0  0  0  0  0  0  0
   10.3575  -28.3709   -9.5737 H   0  0  0  0  0  0  0  0  0  0  0  0
    7.6051  -27.9127   -8.0315 H   0  0  0  0  0  0  0  0  0  0  0  0
    8.5753  -29.2719   -8.5409 H   0  0  0  0  0  0  0  0  0  0  0  0
    8.1318  -28.2792  -11.0170 H   0  0  0  0  0  0  0  0  0  0  0  0
  1  5  1  0  0  0  0
  1 17  1  0  0  0  0
  1 18  2  0  0  0  0
  2 12  1  0  0  0  0
  2 16  1  0  0  0  0
  2 19  2  0  0  0  0
  3  5  1  0  0  0  0
  3  6  1  0  0  0  0
  4  6  1  0  0  0  0
  4 16  1  0  0  0  0
  5 16  1  0  0  0  0
  6 20  1  0  0  0  0
  7 14  1  0  0  0  0
  8 15  1  0  0  0  0
  9 15  1  0  0  0  0
 10 15  1  0  0  0  0
 11 20  1  0  0  0  0
 12 14  1  0  0  0  0
 13 14  1  0  0  0  0
 13 15  1  0  0  0  0
  3 21  1  0  0  0  0
  3 22  1  0  0  0  0
  4 23  1  0  0  0  0
  4 24  1  0  0  0  0
  5 25  1  0  0  0  0
  6 26  1  0  0  0  0
  7 27  1  0  0  0  0
  7 28  1  0  0  0  0
  7 29  1  0  0  0  0
  8 30  1  0  0  0  0
  8 31  1  0  0  0  0
  8 32  1  0  0  0  0
  9 33  1  0  0  0  0
  9 34  1  0  0  0  0
  9 35  1  0  0  0  0
 10 36  1  0  0  0  0
 10 37  1  0  0  0  0
 10 38  1  0  0  0  0
 11 39  1  0  0  0  0
 11 40  1  0  0  0  0
 11 41  1  0  0  0  0
 12 42  1  0  0  0  0
 12 43  1  0  0  0  0
 13 44  1  0  0  0  0
 13 45  1  0  0  0  0
 14 46  1  0  0  0  0
M  CHG  1  17  -1
M  END
> <Hybrid2>
-4.896705627441406

> <Hybrid2>
-4.471056

$$$$
C36974002
  -OEChem-02152218503D

 41 43  0     1  0  0  0  0  0999 V2000
   12.8301  -26.5680  -12.6453 C   0  0  0  0  0  0  0  0  0  0  0  0
   11.5801  -25.9262  -12.4756 C   0  0  0  0  0  0  0  0  0  0  0  0
   13.0272  -27.3256  -11.5144 C   0  0  0  0  0  0  0  0  0  0  0  0
   11.1024  -26.3376  -11.2530 C   0  0  0  0  0  0  0  0  0  0  0  0
    4.7596  -27.3958   -8.7774 C   0  0  0  0  0  0  0  0  0  0  0  0
    7.8146  -26.9454   -9.2817 C   0  0  0  0  0  0  0  0  0  0  0  0
    6.1489  -30.2048   -8.6368 C   0  0  0  0  0  0  0  0  0  0  0  0
    5.6752  -29.3304   -7.4784 C   0  0  0  0  0  0  0  0  0  0  0  0
   15.6313  -27.5735  -11.3373 C   0  0  0  0  0  0  0  0  0  0  0  0
    7.3368  -29.4346   -9.1932 C   0  0  0  0  0  0  0  0  0  0  0  0
   14.2531  -28.2006  -11.2436 C   0  0  1  0  0  0  0  0  0  0  0  0
    5.9201  -27.9125   -7.9815 C   0  0  1  0  0  0  0  0  0  0  0  0
   15.1009  -27.9905   -9.9978 C   0  0  2  0  0  0  0  0  0  0  0  0
   14.7666  -26.9601   -8.9736 C   0  0  0  0  0  0  0  0  0  0  0  0
    9.8428  -26.0299  -10.4802 C   0  0  0  0  0  0  0  0  0  0  0  0
    9.0456  -27.2713  -10.0893 C   0  0  0  0  0  0  0  0  0  0  0  0
    7.0477  -28.0339   -8.8961 N   0  0  0  0  0  0  0  0  0  0  0  0
    4.3848  -28.1373   -9.7277 O   0  5  0  0  0  0  0  0  0  0  0  0
    4.3068  -26.2817   -8.3915 O   0  0  0  0  0  0  0  0  0  0  0  0
    7.5387  -25.7752   -9.0122 O   0  0  0  0  0  0  0  0  0  0  0  0
   11.9786  -27.1908  -10.6607 O   0  0  0  0  0  0  0  0  0  0  0  0
   13.4994  -26.4849  -13.4902 H   0  0  0  0  0  0  0  0  0  0  0  0
   11.0903  -25.2495  -13.1610 H   0  0  0  0  0  0  0  0  0  0  0  0
    6.4204  -31.2127   -8.3103 H   0  0  0  0  0  0  0  0  0  0  0  0
    5.3619  -30.2882   -9.3955 H   0  0  0  0  0  0  0  0  0  0  0  0
    4.6313  -29.5376   -7.2225 H   0  0  0  0  0  0  0  0  0  0  0  0
    6.2928  -29.5250   -6.5933 H   0  0  0  0  0  0  0  0  0  0  0  0
   16.4283  -28.1673  -11.7695 H   0  0  0  0  0  0  0  0  0  0  0  0
   15.7018  -26.5152  -11.5596 H   0  0  0  0  0  0  0  0  0  0  0  0
    8.2633  -29.7025   -8.6739 H   0  0  0  0  0  0  0  0  0  0  0  0
    7.4727  -29.5881  -10.2672 H   0  0  0  0  0  0  0  0  0  0  0  0
   14.1651  -29.2254  -11.5979 H   0  0  0  0  0  0  0  0  0  0  0  0
    6.1584  -27.2025   -7.1952 H   0  0  0  0  0  0  0  0  0  0  0  0
   15.5327  -28.8745   -9.5413 H   0  0  0  0  0  0  0  0  0  0  0  0
   14.3275  -26.0599   -9.4322 H   0  0  0  0  0  0  0  0  0  0  0  0
   15.6600  -26.6394   -8.4144 H   0  0  0  0  0  0  0  0  0  0  0  0
   14.0395  -27.3402   -8.2383 H   0  0  0  0  0  0  0  0  0  0  0  0
    9.2135  -25.3334  -11.0495 H   0  0  0  0  0  0  0  0  0  0  0  0
   10.1243  -25.4927   -9.5651 H   0  0  0  0  0  0  0  0  0  0  0  0
    8.7361  -27.8345  -10.9715 H   0  0  0  0  0  0  0  0  0  0  0  0
    9.6686  -27.9280   -9.4793 H   0  0  0  0  0  0  0  0  0  0  0  0
  1  2  1  0  0  0  0
  1  3  2  0  0  0  0
  2  4  2  0  0  0  0
  3 11  1  0  0  0  0
  3 21  1  0  0  0  0
  4 15  1  0  0  0  0
  4 21  1  0  0  0  0
  5 12  1  0  0  0  0
  5 18  1  0  0  0  0
  5 19  2  0  0  0  0
  6 16  1  0  0  0  0
  6 17  1  0  0  0  0
  6 20  2  0  0  0  0
  7  8  1  0  0  0  0
  7 10  1  0  0  0  0
  8 12  1  0  0  0  0
  9 11  1  0  0  0  0
  9 13  1  0  0  0  0
 10 17  1  0  0  0  0
 11 13  1  0  0  0  0
 12 17  1  0  0  0  0
 13 14  1  0  0  0  0
 15 16  1  0  0  0  0
  1 22  1  0  0  0  0
  2 23  1  0  0  0  0
  7 24  1  0  0  0  0
  7 25  1  0  0  0  0
  8 26  1  0  0  0  0
  8 27  1  0  0  0  0
  9 28  1  0  0  0  0
  9 29  1  0  0  0  0
 10 30  1  0  0  0  0
 10 31  1  0  0  0  0
 11 32  1  0  0  0  0
 12 33  1  0  0  0  0
 13 34  1  0  0  0  0
 14 35  1  0  0  0  0
 14 36  1  0  0  0  0
 14 37  1  0  0  0  0
 15 38  1  0  0  0  0
 15 39  1  0  0  0  0
 16 40  1  0  0  0  0
 16 41  1  0  0  0  0
M  CHG  1  18  -1
M  END
> <Hybrid2>
-5.158759117126465

> <Hybrid2>
-5.158759

$$$$
C36974002
  -OEChem-02152218503D

 41 43  0     1  0  0  0  0  0999 V2000
   12.6365  -27.1367  -12.8109 C   0  0  0  0  0  0  0  0  0  0  0  0
   11.2497  -26.8778  -12.6970 C   0  0  0  0  0  0  0  0  0  0  0  0
   13.1699  -26.9170  -11.5623 C   0  0  0  0  0  0  0  0  0  0  0  0
   11.0345  -26.5186  -11.3868 C   0  0  0  0  0  0  0  0  0  0  0  0
    4.6592  -27.1529   -8.8505 C   0  0  0  0  0  0  0  0  0  0  0  0
    7.7312  -26.8897   -9.3828 C   0  0  0  0  0  0  0  0  0  0  0  0
    5.8876  -30.0322   -8.6479 C   0  0  0  0  0  0  0  0  0  0  0  0
    5.4725  -29.1040   -7.5089 C   0  0  0  0  0  0  0  0  0  0  0  0
   15.0175  -27.3328   -9.7491 C   0  0  0  0  0  0  0  0  0  0  0  0
    7.1134  -29.3447   -9.2298 C   0  0  0  0  0  0  0  0  0  0  0  0
   14.6479  -27.0707  -11.1970 C   0  0  1  0  0  0  0  0  0  0  0  0
    5.7940  -27.7152   -8.0484 C   0  0  1  0  0  0  0  0  0  0  0  0
   15.2085  -28.4181  -10.7665 C   0  0  2  0  0  0  0  0  0  0  0  0
   14.3676  -29.6480  -10.7128 C   0  0  0  0  0  0  0  0  0  0  0  0
    9.7999  -26.1209  -10.6149 C   0  0  0  0  0  0  0  0  0  0  0  0
    8.9361  -27.3049  -10.1889 C   0  0  0  0  0  0  0  0  0  0  0  0
    6.9065  -27.9230   -8.9660 N   0  0  0  0  0  0  0  0  0  0  0  0
    4.2363  -27.8948   -9.7799 O   0  5  0  0  0  0  0  0  0  0  0  0
    4.2731  -26.0057   -8.4899 O   0  0  0  0  0  0  0  0  0  0  0  0
    7.5242  -25.6994   -9.1409 O   0  0  0  0  0  0  0  0  0  0  0  0
   12.2000  -26.5401  -10.6884 O   0  0  0  0  0  0  0  0  0  0  0  0
   13.1744  -27.4453  -13.6964 H   0  0  0  0  0  0  0  0  0  0  0  0
   10.5023  -26.9463  -13.4744 H   0  0  0  0  0  0  0  0  0  0  0  0
    6.1038  -31.0455   -8.2980 H   0  0  0  0  0  0  0  0  0  0  0  0
    5.0919  -30.0891   -9.3998 H   0  0  0  0  0  0  0  0  0  0  0  0
    4.4202  -29.2451   -7.2421 H   0  0  0  0  0  0  0  0  0  0  0  0
    6.0841  -29.3119   -6.6227 H   0  0  0  0  0  0  0  0  0  0  0  0
   15.9047  -26.8482   -9.3584 H   0  0  0  0  0  0  0  0  0  0  0  0
   14.2187  -27.4373   -9.0243 H   0  0  0  0  0  0  0  0  0  0  0  0
    8.0268  -29.6522   -8.7091 H   0  0  0  0  0  0  0  0  0  0  0  0
    7.2330  -29.5319  -10.3004 H   0  0  0  0  0  0  0  0  0  0  0  0
   15.3222  -26.4264  -11.7571 H   0  0  0  0  0  0  0  0  0  0  0  0
    6.0777  -27.0008   -7.2814 H   0  0  0  0  0  0  0  0  0  0  0  0
   16.2243  -28.6481  -11.0688 H   0  0  0  0  0  0  0  0  0  0  0  0
   13.3344  -29.4198  -10.4061 H   0  0  0  0  0  0  0  0  0  0  0  0
   14.7674  -30.3814   -9.9944 H   0  0  0  0  0  0  0  0  0  0  0  0
   14.3149  -30.1464  -11.6938 H   0  0  0  0  0  0  0  0  0  0  0  0
    9.2072  -25.4038  -11.1978 H   0  0  0  0  0  0  0  0  0  0  0  0
   10.1177  -25.5783   -9.7150 H   0  0  0  0  0  0  0  0  0  0  0  0
    8.5890  -27.8709  -11.0551 H   0  0  0  0  0  0  0  0  0  0  0  0
    9.5250  -27.9808   -9.5662 H   0  0  0  0  0  0  0  0  0  0  0  0
  1  2  1  0  0  0  0
  1  3  2  0  0  0  0
  2  4  2  0  0  0  0
  3 11  1  0  0  0  0
  3 21  1  0  0  0  0
  4 15  1  0  0  0  0
  4 21  1  0  0  0  0
  5 12  1  0  0  0  0
  5 18  1  0  0  0  0
  5 19  2  0  0  0  0
  6 16  1  0  0  0  0
  6 17  1  0  0  0  0
  6 20  2  0  0  0  0
  7  8  1  0  0  0  0
  7 10  1  0  0  0  0
  8 12  1  0  0  0  0
  9 11  1  0  0  0  0
  9 13  1  0  0  0  0
 10 17  1  0  0  0  0
 11 13  1  0  0  0  0
 12 17  1  0  0  0  0
 13 14  1  0  0  0  0
 15 16  1  0  0  0  0
  1 22  1  0  0  0  0
  2 23  1  0  0  0  0
  7 24  1  0  0  0  0
  7 25  1  0  0  0  0
  8 26  1  0  0  0  0
  8 27  1  0  0  0  0
  9 28  1  0  0  0  0
  9 29  1  0  0  0  0
 10 30  1  0  0  0  0
 10 31  1  0  0  0  0
 11 32  1  0  0  0  0
 12 33  1  0  0  0  0
 13 34  1  0  0  0  0
 14 35  1  0  0  0  0
 14 36  1  0  0  0  0
 14 37  1  0  0  0  0
 15 38  1  0  0  0  0
 15 39  1  0  0  0  0
 16 40  1  0  0  0  0
 16 41  1  0  0  0  0
M  CHG  1  18  -1
M  END
> <Hybrid2>
-5.158759117126465

> <Hybrid2>
-4.815052

$$$$
C36979790
  -OEChem-02152218503D

 47 48  0     1  0  0  0  0  0999 V2000
   14.2416  -27.3454  -11.0725 C   0  0  0  0  0  0  0  0  0  0  0  0
   11.5031  -27.0736   -9.7355 C   0  0  0  0  0  0  0  0  0  0  0  0
    3.9014  -28.2751   -8.3421 C   0  0  0  0  0  0  0  0  0  0  0  0
    5.1548  -29.1440   -8.3052 C   0  0  0  0  0  0  0  0  0  0  0  0
    3.9888  -27.2104   -9.4312 C   0  0  0  0  0  0  0  0  0  0  0  0
    6.4204  -28.3014   -8.1642 C   0  0  0  0  0  0  0  0  0  0  0  0
    5.2525  -26.3647   -9.2923 C   0  0  0  0  0  0  0  0  0  0  0  0
   12.8948  -27.3481  -13.1611 C   0  0  0  0  0  0  0  0  0  0  0  0
   11.2547  -26.0297  -12.0329 C   0  0  0  0  0  0  0  0  0  0  0  0
   12.9260  -27.7212  -11.6805 C   0  0  2  0  0  0  0  0  0  0  0  0
    6.5163  -27.2348   -9.2635 C   0  0  0  0  0  0  0  0  0  0  0  0
   11.5167  -26.7247  -13.3589 C   0  0  1  0  0  0  0  0  0  0  0  0
   11.4200  -26.4560  -15.6844 C   0  0  0  0  0  0  0  0  0  0  0  0
   10.2891  -26.2906   -9.3037 C   0  0  0  0  0  0  0  0  0  0  0  0
    7.7615  -26.3714   -9.0702 C   0  0  0  0  0  0  0  0  0  0  0  0
    9.0221  -27.0922   -9.5541 C   0  0  0  0  0  0  0  0  0  0  0  0
   11.9018  -26.8921  -11.0514 N   0  0  0  0  0  0  0  0  0  0  0  0
   14.5778  -26.1377  -11.2190 O   0  5  0  0  0  0  0  0  0  0  0  0
   14.8452  -28.2900  -10.4905 O   0  0  0  0  0  0  0  0  0  0  0  0
   12.0790  -27.8138   -8.9357 O   0  0  0  0  0  0  0  0  0  0  0  0
   11.5126  -25.7999  -14.4273 O   0  0  0  0  0  0  0  0  0  0  0  0
    3.0210  -28.9051   -8.5122 H   0  0  0  0  0  0  0  0  0  0  0  0
    3.7656  -27.7897   -7.3679 H   0  0  0  0  0  0  0  0  0  0  0  0
    5.0876  -29.8512   -7.4706 H   0  0  0  0  0  0  0  0  0  0  0  0
    5.2137  -29.7396   -9.2245 H   0  0  0  0  0  0  0  0  0  0  0  0
    3.9797  -27.6936  -10.4160 H   0  0  0  0  0  0  0  0  0  0  0  0
    3.1052  -26.5637   -9.3851 H   0  0  0  0  0  0  0  0  0  0  0  0
    6.4254  -27.8216   -7.1770 H   0  0  0  0  0  0  0  0  0  0  0  0
    7.2981  -28.9578   -8.2019 H   0  0  0  0  0  0  0  0  0  0  0  0
    5.3059  -25.6544  -10.1261 H   0  0  0  0  0  0  0  0  0  0  0  0
    5.1880  -25.7695   -8.3723 H   0  0  0  0  0  0  0  0  0  0  0  0
   13.7020  -26.6639  -13.4483 H   0  0  0  0  0  0  0  0  0  0  0  0
   12.9745  -28.2611  -13.7653 H   0  0  0  0  0  0  0  0  0  0  0  0
   11.6639  -25.0226  -11.9685 H   0  0  0  0  0  0  0  0  0  0  0  0
   10.1902  -26.0160  -11.7949 H   0  0  0  0  0  0  0  0  0  0  0  0
   12.7339  -28.7690  -11.4999 H   0  0  0  0  0  0  0  0  0  0  0  0
    6.6086  -27.7431  -10.2321 H   0  0  0  0  0  0  0  0  0  0  0  0
   10.7548  -27.4990  -13.5726 H   0  0  0  0  0  0  0  0  0  0  0  0
   11.4195  -25.7125  -16.4852 H   0  0  0  0  0  0  0  0  0  0  0  0
   10.5016  -27.0473  -15.7211 H   0  0  0  0  0  0  0  0  0  0  0  0
   12.2816  -27.1170  -15.8047 H   0  0  0  0  0  0  0  0  0  0  0  0
   10.2854  -25.3442   -9.8431 H   0  0  0  0  0  0  0  0  0  0  0  0
   10.4059  -26.0952   -8.2372 H   0  0  0  0  0  0  0  0  0  0  0  0
    7.6293  -25.4308   -9.6164 H   0  0  0  0  0  0  0  0  0  0  0  0
    7.8618  -26.1189   -8.0083 H   0  0  0  0  0  0  0  0  0  0  0  0
    8.9244  -27.3265  -10.6215 H   0  0  0  0  0  0  0  0  0  0  0  0
    9.1141  -28.0469   -9.0219 H   0  0  0  0  0  0  0  0  0  0  0  0
  1 10  1  0  0  0  0
  1 18  1  0  0  0  0
  1 19  2  0  0  0  0
  2 14  1  0  0  0  0
  2 17  1  0  0  0  0
  2 20  2  0  0  0  0
  3  4  1  0  0  0  0
  3  5  1  0  0  0  0
  4  6  1  0  0  0  0
  5  7  1  0  0  0  0
  6 11  1  0  0  0  0
  7 11  1  0  0  0  0
  8 10  1  0  0  0  0
  8 12  1  0  0  0  0
  9 12  1  0  0  0  0
  9 17  1  0  0  0  0
 10 17  1  0  0  0  0
 11 15  1  0  0  0  0
 12 21  1  0  0  0  0
 13 21  1  0  0  0  0
 14 16  1  0  0  0  0
 15 16  1  0  0  0  0
  3 22  1  0  0  0  0
  3 23  1  0  0  0  0
  4 24  1  0  0  0  0
  4 25  1  0  0  0  0
  5 26  1  0  0  0  0
  5 27  1  0  0  0  0
  6 28  1  0  0  0  0
  6 29  1  0  0  0  0
  7 30  1  0  0  0  0
  7 31  1  0  0  0  0
  8 32  1  0  0  0  0
  8 33  1  0  0  0  0
  9 34  1  0  0  0  0
  9 35  1  0  0  0  0
 10 36  1  0  0  0  0
 11 37  1  0  0  0  0
 12 38  1  0  0  0  0
 13 39  1  0  0  0  0
 13 40  1  0  0  0  0
 13 41  1  0  0  0  0
 14 42  1  0  0  0  0
 14 43  1  0  0  0  0
 15 44  1  0  0  0  0
 15 45  1  0  0  0  0
 16 46  1  0  0  0  0
 16 47  1  0  0  0  0
M  CHG  1  18  -1
M  END
> <Hybrid2>
-3.931363821029663

> <Hybrid2>
-3.931364

$$$$
C36979790
  -OEChem-02152218503D

 47 48  0     1  0  0  0  0  0999 V2000
   14.7125  -27.3735  -10.5722 C   0  0  0  0  0  0  0  0  0  0  0  0
   11.9057  -27.3690   -9.3545 C   0  0  0  0  0  0  0  0  0  0  0  0
    4.3655  -29.1986   -8.3706 C   0  0  0  0  0  0  0  0  0  0  0  0
    5.6791  -29.9720   -8.3119 C   0  0  0  0  0  0  0  0  0  0  0  0
    4.4180  -28.0816   -9.4083 C   0  0  0  0  0  0  0  0  0  0  0  0
    6.8689  -29.0444   -8.0763 C   0  0  0  0  0  0  0  0  0  0  0  0
    5.6058  -27.1509   -9.1748 C   0  0  0  0  0  0  0  0  0  0  0  0
   13.4619  -27.3813  -12.7197 C   0  0  0  0  0  0  0  0  0  0  0  0
   11.6779  -26.2425  -11.6147 C   0  0  0  0  0  0  0  0  0  0  0  0
   13.4574  -27.8185  -11.2565 C   0  0  2  0  0  0  0  0  0  0  0  0
    6.9303  -27.9244   -9.1237 C   0  0  0  0  0  0  0  0  0  0  0  0
   12.0499  -26.8544  -12.9552 C   0  0  1  0  0  0  0  0  0  0  0  0
   12.0340  -26.4876  -15.2693 C   0  0  0  0  0  0  0  0  0  0  0  0
   10.6175  -26.6996   -8.9472 C   0  0  0  0  0  0  0  0  0  0  0  0
    8.0958  -26.9799   -8.8360 C   0  0  0  0  0  0  0  0  0  0  0  0
    9.4279  -27.5815   -9.2904 C   0  0  0  0  0  0  0  0  0  0  0  0
   12.3460  -27.0980  -10.6414 N   0  0  0  0  0  0  0  0  0  0  0  0
   14.9609  -26.1385  -10.6514 O   0  5  0  0  0  0  0  0  0  0  0  0
   15.3610  -28.2958  -10.0031 O   0  0  0  0  0  0  0  0  0  0  0  0
   12.5015  -28.0998   -8.5607 O   0  0  0  0  0  0  0  0  0  0  0  0
   12.0212  -25.8846  -13.9826 O   0  0  0  0  0  0  0  0  0  0  0  0
    3.5443  -29.8843   -8.6082 H   0  0  0  0  0  0  0  0  0  0  0  0
    4.1505  -28.7698   -7.3841 H   0  0  0  0  0  0  0  0  0  0  0  0
    5.6302  -30.7197   -7.5121 H   0  0  0  0  0  0  0  0  0  0  0  0
    5.8235  -30.5188   -9.2518 H   0  0  0  0  0  0  0  0  0  0  0  0
    4.4889  -28.5185  -10.4121 H   0  0  0  0  0  0  0  0  0  0  0  0
    3.4861  -27.5057   -9.3763 H   0  0  0  0  0  0  0  0  0  0  0  0
    6.7941  -28.6113   -7.0705 H   0  0  0  0  0  0  0  0  0  0  0  0
    7.7952  -29.6308   -8.1006 H   0  0  0  0  0  0  0  0  0  0  0  0
    5.6406  -26.4012   -9.9743 H   0  0  0  0  0  0  0  0  0  0  0  0
    5.4557  -26.6049   -8.2344 H   0  0  0  0  0  0  0  0  0  0  0  0
   14.2258  -26.6262  -12.9396 H   0  0  0  0  0  0  0  0  0  0  0  0
   13.6377  -28.2572  -13.3577 H   0  0  0  0  0  0  0  0  0  0  0  0
   12.0052  -25.2116  -11.4886 H   0  0  0  0  0  0  0  0  0  0  0  0
   10.6061  -26.3194  -11.4264 H   0  0  0  0  0  0  0  0  0  0  0  0
   13.3387  -28.8849  -11.1295 H   0  0  0  0  0  0  0  0  0  0  0  0
    7.1033  -28.3795  -10.1076 H   0  0  0  0  0  0  0  0  0  0  0  0
   11.3597  -27.6730  -13.2370 H   0  0  0  0  0  0  0  0  0  0  0  0
   12.0112  -25.7102  -16.0370 H   0  0  0  0  0  0  0  0  0  0  0  0
   11.1662  -27.1436  -15.3739 H   0  0  0  0  0  0  0  0  0  0  0  0
   12.9483  -27.0760  -15.3770 H   0  0  0  0  0  0  0  0  0  0  0  0
   10.5645  -25.7324   -9.4457 H   0  0  0  0  0  0  0  0  0  0  0  0
   10.6725  -26.5450   -7.8691 H   0  0  0  0  0  0  0  0  0  0  0  0
    7.9155  -26.0279   -9.3474 H   0  0  0  0  0  0  0  0  0  0  0  0
    8.1302  -26.7695   -7.7608 H   0  0  0  0  0  0  0  0  0  0  0  0
    9.3949  -27.7733  -10.3702 H   0  0  0  0  0  0  0  0  0  0  0  0
    9.5698  -28.5500   -8.7953 H   0  0  0  0  0  0  0  0  0  0  0  0
  1 10  1  0  0  0  0
  1 18  1  0  0  0  0
  1 19  2  0  0  0  0
  2 14  1  0  0  0  0
  2 17  1  0  0  0  0
  2 20  2  0  0  0  0
  3  4  1  0  0  0  0
  3  5  1  0  0  0  0
  4  6  1  0  0  0  0
  5  7  1  0  0  0  0
  6 11  1  0  0  0  0
  7 11  1  0  0  0  0
  8 10  1  0  0  0  0
  8 12  1  0  0  0  0
  9 12  1  0  0  0  0
  9 17  1  0  0  0  0
 10 17  1  0  0  0  0
 11 15  1  0  0  0  0
 12 21  1  0  0  0  0
 13 21  1  0  0  0  0
 14 16  1  0  0  0  0
 15 16  1  0  0  0  0
  3 22  1  0  0  0  0
  3 23  1  0  0  0  0
  4 24  1  0  0  0  0
  4 25  1  0  0  0  0
  5 26  1  0  0  0  0
  5 27  1  0  0  0  0
  6 28  1  0  0  0  0
  6 29  1  0  0  0  0
  7 30  1  0  0  0  0
  7 31  1  0  0  0  0
  8 32  1  0  0  0  0
  8 33  1  0  0  0  0
  9 34  1  0  0  0  0
  9 35  1  0  0  0  0
 10 36  1  0  0  0  0
 11 37  1  0  0  0  0
 12 38  1  0  0  0  0
 13 39  1  0  0  0  0
 13 40  1  0  0  0  0
 13 41  1  0  0  0  0
 14 42  1  0  0  0  0
 14 43  1  0  0  0  0
 15 44  1  0  0  0  0
 15 45  1  0  0  0  0
 16 46  1  0  0  0  0
 16 47  1  0  0  0  0
M  CHG  1  18  -1
M  END
> <Hybrid2>
-3.931363821029663

> <Hybrid2>
-2.784321

$$$$
C37364728
  -OEChem-02152218503D

 45 46  0     1  0  0  0  0  0999 V2000
   10.3170  -27.0044  -11.5670 C   0  0  0  0  0  0  0  0  0  0  0  0
   10.8990  -26.5585   -9.1701 C   0  0  0  0  0  0  0  0  0  0  0  0
   11.7405  -24.3065  -11.7003 C   0  0  0  0  0  0  0  0  0  0  0  0
    9.1989  -27.9094  -11.1034 C   0  0  0  0  0  0  0  0  0  0  0  0
    9.7705  -27.4754   -8.7520 C   0  0  0  0  0  0  0  0  0  0  0  0
    6.1014  -26.8727   -8.2084 C   0  0  0  0  0  0  0  0  0  0  0  0
    6.7872  -28.2264   -8.0696 C   0  0  0  0  0  0  0  0  0  0  0  0
    7.0855  -25.7757   -8.5963 C   0  0  0  0  0  0  0  0  0  0  0  0
    7.5759  -28.5900   -9.3272 C   0  0  0  0  0  0  0  0  0  0  0  0
    7.8759  -26.1417   -9.8529 C   0  0  0  0  0  0  0  0  0  0  0  0
    8.6035  -27.5074   -9.7480 C   0  0  0  0  0  0  0  0  0  0  0  0
   14.7296  -28.6849   -9.0044 C   0  0  0  0  0  0  0  0  0  0  0  0
   14.3415  -27.4089   -9.7343 C   0  0  0  0  0  0  0  0  0  0  0  0
   13.6710  -27.7120  -11.0752 C   0  0  0  0  0  0  0  0  0  0  0  0
   13.2436  -26.4199  -11.7841 C   0  0  0  0  0  0  0  0  0  0  0  0
   12.2160  -25.5942  -10.9995 C   0  0  2  0  0  0  0  0  0  0  0  0
   11.1107  -26.4363  -10.5541 N   0  0  0  0  0  0  0  0  0  0  0  0
   10.5663  -23.9323  -11.4219 O   0  5  0  0  0  0  0  0  0  0  0  0
   10.5095  -26.8403  -12.7741 O   0  0  0  0  0  0  0  0  0  0  0  0
   11.5862  -26.0099   -8.3055 O   0  0  0  0  0  0  0  0  0  0  0  0
   12.5702  -23.7851  -12.4994 O   0  0  0  0  0  0  0  0  0  0  0  0
    8.4340  -27.9176  -11.8871 H   0  0  0  0  0  0  0  0  0  0  0  0
    9.6149  -28.9243  -11.0549 H   0  0  0  0  0  0  0  0  0  0  0  0
   10.2033  -28.4758   -8.6272 H   0  0  0  0  0  0  0  0  0  0  0  0
    9.4187  -27.1481   -7.7663 H   0  0  0  0  0  0  0  0  0  0  0  0
    5.3048  -26.9367   -8.9581 H   0  0  0  0  0  0  0  0  0  0  0  0
    5.6220  -26.6099   -7.2572 H   0  0  0  0  0  0  0  0  0  0  0  0
    7.4658  -28.2036   -7.2090 H   0  0  0  0  0  0  0  0  0  0  0  0
    6.0403  -28.9995   -7.8565 H   0  0  0  0  0  0  0  0  0  0  0  0
    6.5478  -24.8335   -8.7511 H   0  0  0  0  0  0  0  0  0  0  0  0
    7.7817  -25.6035   -7.7673 H   0  0  0  0  0  0  0  0  0  0  0  0
    8.1020  -29.5364   -9.1416 H   0  0  0  0  0  0  0  0  0  0  0  0
    6.8721  -28.7867  -10.1458 H   0  0  0  0  0  0  0  0  0  0  0  0
    7.1964  -26.1159  -10.7122 H   0  0  0  0  0  0  0  0  0  0  0  0
    8.6188  -25.3524  -10.0314 H   0  0  0  0  0  0  0  0  0  0  0  0
   15.4092  -29.2924   -9.6105 H   0  0  0  0  0  0  0  0  0  0  0  0
   15.2249  -28.4585   -8.0548 H   0  0  0  0  0  0  0  0  0  0  0  0
   13.8393  -29.2839   -8.7888 H   0  0  0  0  0  0  0  0  0  0  0  0
   13.6626  -26.8253   -9.1018 H   0  0  0  0  0  0  0  0  0  0  0  0
   15.2388  -26.8004   -9.8958 H   0  0  0  0  0  0  0  0  0  0  0  0
   14.3652  -28.2776  -11.7069 H   0  0  0  0  0  0  0  0  0  0  0  0
   12.7969  -28.3512  -10.9045 H   0  0  0  0  0  0  0  0  0  0  0  0
   14.1354  -25.8040  -11.9602 H   0  0  0  0  0  0  0  0  0  0  0  0
   12.8385  -26.6678  -12.7731 H   0  0  0  0  0  0  0  0  0  0  0  0
   12.7038  -25.2534  -10.0768 H   0  0  0  0  0  0  0  0  0  0  0  0
  1  4  1  0  0  0  0
  1 17  1  0  0  0  0
  1 19  2  0  0  0  0
  2  5  1  0  0  0  0
  2 17  1  0  0  0  0
  2 20  2  0  0  0  0
  3 16  1  0  0  0  0
  3 18  1  0  0  0  0
  3 21  2  0  0  0  0
  4 11  1  0  0  0  0
  5 11  1  0  0  0  0
  6  7  1  0  0  0  0
  6  8  1  0  0  0  0
  7  9  1  0  0  0  0
  8 10  1  0  0  0  0
  9 11  1  0  0  0  0
 10 11  1  0  0  0  0
 12 13  1  0  0  0  0
 13 14  1  0  0  0  0
 14 15  1  0  0  0  0
 15 16  1  0  0  0  0
 16 17  1  0  0  0  0
  4 22  1  0  0  0  0
  4 23  1  0  0  0  0
  5 24  1  0  0  0  0
  5 25  1  0  0  0  0
  6 26  1  0  0  0  0
  6 27  1  0  0  0  0
  7 28  1  0  0  0  0
  7 29  1  0  0  0  0
  8 30  1  0  0  0  0
  8 31  1  0  0  0  0
  9 32  1  0  0  0  0
  9 33  1  0  0  0  0
 10 34  1  0  0  0  0
 10 35  1  0  0  0  0
 12 36  1  0  0  0  0
 12 37  1  0  0  0  0
 12 38  1  0  0  0  0
 13 39  1  0  0  0  0
 13 40  1  0  0  0  0
 14 41  1  0  0  0  0
 14 42  1  0  0  0  0
 15 43  1  0  0  0  0
 15 44  1  0  0  0  0
 16 45  1  0  0  0  0
M  CHG  1  18  -1
M  END
> <Hybrid2>
-5.277789115905762

> <Hybrid2>
-5.277789

$$$$
C37364728
  -OEChem-02152218503D

 45 46  0     1  0  0  0  0  0999 V2000
   10.1451  -26.0547   -9.4678 C   0  0  0  0  0  0  0  0  0  0  0  0
    9.9574  -27.5351  -11.4816 C   0  0  0  0  0  0  0  0  0  0  0  0
   10.7418  -24.8895  -12.7274 C   0  0  0  0  0  0  0  0  0  0  0  0
    9.2186  -26.9916   -8.7242 C   0  0  0  0  0  0  0  0  0  0  0  0
    9.0330  -28.4411  -10.7012 C   0  0  0  0  0  0  0  0  0  0  0  0
    5.4721  -27.1890   -8.5099 C   0  0  0  0  0  0  0  0  0  0  0  0
    6.2140  -26.1182   -9.3007 C   0  0  0  0  0  0  0  0  0  0  0  0
    6.4314  -28.1550   -7.8254 C   0  0  0  0  0  0  0  0  0  0  0  0
    7.2049  -26.7298  -10.2915 C   0  0  0  0  0  0  0  0  0  0  0  0
    7.4201  -28.7653   -8.8183 C   0  0  0  0  0  0  0  0  0  0  0  0
    8.2112  -27.7090   -9.6328 C   0  0  0  0  0  0  0  0  0  0  0  0
   15.2290  -28.4584   -9.7892 C   0  0  0  0  0  0  0  0  0  0  0  0
   14.5886  -27.7936  -10.9973 C   0  0  0  0  0  0  0  0  0  0  0  0
   13.3183  -27.0341  -10.6114 C   0  0  0  0  0  0  0  0  0  0  0  0
   12.7035  -26.3306  -11.8287 C   0  0  0  0  0  0  0  0  0  0  0  0
   11.4028  -25.5791  -11.5178 C   0  0  2  0  0  0  0  0  0  0  0  0
   10.4785  -26.4333  -10.7796 N   0  0  0  0  0  0  0  0  0  0  0  0
    9.4841  -24.7800  -12.6763 O   0  5  0  0  0  0  0  0  0  0  0  0
   10.5845  -25.0554   -8.8943 O   0  0  0  0  0  0  0  0  0  0  0  0
   10.2424  -27.8124  -12.6491 O   0  0  0  0  0  0  0  0  0  0  0  0
   11.5314  -24.5372  -13.6500 O   0  0  0  0  0  0  0  0  0  0  0  0
    9.8417  -27.7070   -8.1782 H   0  0  0  0  0  0  0  0  0  0  0  0
    8.6958  -26.3860   -7.9729 H   0  0  0  0  0  0  0  0  0  0  0  0
    8.3750  -28.9298  -11.4312 H   0  0  0  0  0  0  0  0  0  0  0  0
    9.6429  -29.2265  -10.2380 H   0  0  0  0  0  0  0  0  0  0  0  0
    4.8272  -26.7155   -7.7610 H   0  0  0  0  0  0  0  0  0  0  0  0
    4.8147  -27.7491   -9.1865 H   0  0  0  0  0  0  0  0  0  0  0  0
    5.4895  -25.5013   -9.8458 H   0  0  0  0  0  0  0  0  0  0  0  0
    6.7376  -25.4452   -8.6114 H   0  0  0  0  0  0  0  0  0  0  0  0
    6.9718  -27.6365   -7.0261 H   0  0  0  0  0  0  0  0  0  0  0  0
    5.8580  -28.9559   -7.3454 H   0  0  0  0  0  0  0  0  0  0  0  0
    6.6341  -27.2618  -11.0642 H   0  0  0  0  0  0  0  0  0  0  0  0
    7.7395  -25.9221  -10.8064 H   0  0  0  0  0  0  0  0  0  0  0  0
    8.0942  -29.4355   -8.2720 H   0  0  0  0  0  0  0  0  0  0  0  0
    6.8571  -29.4050   -9.5122 H   0  0  0  0  0  0  0  0  0  0  0  0
   14.5331  -29.1537   -9.3091 H   0  0  0  0  0  0  0  0  0  0  0  0
   16.1268  -29.0144  -10.0775 H   0  0  0  0  0  0  0  0  0  0  0  0
   15.5190  -27.7041   -9.0510 H   0  0  0  0  0  0  0  0  0  0  0  0
   15.3099  -27.1056  -11.4535 H   0  0  0  0  0  0  0  0  0  0  0  0
   14.3520  -28.5592  -11.7452 H   0  0  0  0  0  0  0  0  0  0  0  0
   12.5968  -27.7343  -10.1754 H   0  0  0  0  0  0  0  0  0  0  0  0
   13.5605  -26.2971   -9.8368 H   0  0  0  0  0  0  0  0  0  0  0  0
   13.4373  -25.6203  -12.2320 H   0  0  0  0  0  0  0  0  0  0  0  0
   12.5215  -27.0697  -12.6190 H   0  0  0  0  0  0  0  0  0  0  0  0
   11.6516  -24.7640  -10.8256 H   0  0  0  0  0  0  0  0  0  0  0  0
  1  4  1  0  0  0  0
  1 17  1  0  0  0  0
  1 19  2  0  0  0  0
  2  5  1  0  0  0  0
  2 17  1  0  0  0  0
  2 20  2  0  0  0  0
  3 16  1  0  0  0  0
  3 18  1  0  0  0  0
  3 21  2  0  0  0  0
  4 11  1  0  0  0  0
  5 11  1  0  0  0  0
  6  7  1  0  0  0  0
  6  8  1  0  0  0  0
  7  9  1  0  0  0  0
  8 10  1  0  0  0  0
  9 11  1  0  0  0  0
 10 11  1  0  0  0  0
 12 13  1  0  0  0  0
 13 14  1  0  0  0  0
 14 15  1  0  0  0  0
 15 16  1  0  0  0  0
 16 17  1  0  0  0  0
  4 22  1  0  0  0  0
  4 23  1  0  0  0  0
  5 24  1  0  0  0  0
  5 25  1  0  0  0  0
  6 26  1  0  0  0  0
  6 27  1  0  0  0  0
  7 28  1  0  0  0  0
  7 29  1  0  0  0  0
  8 30  1  0  0  0  0
  8 31  1  0  0  0  0
  9 32  1  0  0  0  0
  9 33  1  0  0  0  0
 10 34  1  0  0  0  0
 10 35  1  0  0  0  0
 12 36  1  0  0  0  0
 12 37  1  0  0  0  0
 12 38  1  0  0  0  0
 13 39  1  0  0  0  0
 13 40  1  0  0  0  0
 14 41  1  0  0  0  0
 14 42  1  0  0  0  0
 15 43  1  0  0  0  0
 15 44  1  0  0  0  0
 16 45  1  0  0  0  0
M  CHG  1  18  -1
M  END
> <Hybrid2>
-5.277789115905762

> <Hybrid2>
-4.096535

$$$$
C37405700
  -OEChem-02152218503D

 30 30  0     0  0  0  0  0  0999 V2000
    8.9942  -26.0011   -9.3689 C   0  0  0  0  0  0  0  0  0  0  0  0
    9.5929  -27.0371  -10.0547 C   0  0  0  0  0  0  0  0  0  0  0  0
    7.8574  -28.1224   -9.2672 C   0  0  0  0  0  0  0  0  0  0  0  0
    5.7560  -28.8493   -8.1416 C   0  0  0  0  0  0  0  0  0  0  0  0
   14.8067  -27.9286  -10.6119 C   0  0  0  0  0  0  0  0  0  0  0  0
    4.4694  -29.5522   -8.5096 C   0  0  0  0  0  0  0  0  0  0  0  0
    7.8242  -31.3768   -8.6719 C   0  0  0  0  0  0  0  0  0  0  0  0
   10.8474  -26.9480  -10.8280 C   0  0  0  0  0  0  0  0  0  0  0  0
   13.5302  -27.3593  -11.2146 C   0  0  0  0  0  0  0  0  0  0  0  0
    7.0663  -30.4579   -9.5685 C   0  0  0  0  0  0  0  0  0  0  0  0
    8.9427  -28.2544   -9.9972 N   0  0  0  0  0  0  0  0  0  0  0  0
    6.8786  -29.1402   -8.9420 N   0  0  0  0  0  0  0  0  0  0  0  0
   14.7647  -29.1590  -10.3248 O   0  5  0  0  0  0  0  0  0  0  0  0
    5.7293  -28.0546   -7.1986 O   0  0  0  0  0  0  0  0  0  0  0  0
   15.7422  -27.0950  -10.4446 O   0  0  0  0  0  0  0  0  0  0  0  0
    7.5572  -26.5619   -8.6194 S   0  0  0  0  0  0  0  0  0  0  0  0
   12.2744  -27.6784   -9.9564 S   0  0  0  0  0  0  0  0  0  0  0  0
    9.3182  -24.9743   -9.2740 H   0  0  0  0  0  0  0  0  0  0  0  0
    4.3918  -30.5036   -7.9767 H   0  0  0  0  0  0  0  0  0  0  0  0
    4.4132  -29.7054   -9.5906 H   0  0  0  0  0  0  0  0  0  0  0  0
    3.6185  -28.9311   -8.2116 H   0  0  0  0  0  0  0  0  0  0  0  0
    7.2727  -31.5075   -7.7291 H   0  0  0  0  0  0  0  0  0  0  0  0
    7.9445  -32.3529   -9.1645 H   0  0  0  0  0  0  0  0  0  0  0  0
    8.8149  -30.9481   -8.4605 H   0  0  0  0  0  0  0  0  0  0  0  0
   10.7584  -27.4529  -11.8074 H   0  0  0  0  0  0  0  0  0  0  0  0
   11.1025  -25.8989  -11.0647 H   0  0  0  0  0  0  0  0  0  0  0  0
   13.2689  -27.8666  -12.1472 H   0  0  0  0  0  0  0  0  0  0  0  0
   13.6178  -26.2856  -11.4023 H   0  0  0  0  0  0  0  0  0  0  0  0
    7.6239  -30.3324  -10.5083 H   0  0  0  0  0  0  0  0  0  0  0  0
    6.0808  -30.8972   -9.7827 H   0  0  0  0  0  0  0  0  0  0  0  0
  1  2  2  0  0  0  0
  1 16  1  0  0  0  0
  2  8  1  0  0  0  0
  2 11  1  0  0  0  0
  3 11  2  0  0  0  0
  3 12  1  0  0  0  0
  3 16  1  0  0  0  0
  4  6  1  0  0  0  0
  4 12  1  0  0  0  0
  4 14  2  0  0  0  0
  5  9  1  0  0  0  0
  5 13  1  0  0  0  0
  5 15  2  0  0  0  0
  7 10  1  0  0  0  0
  8 17  1  0  0  0  0
  9 17  1  0  0  0  0
 10 12  1  0  0  0  0
  1 18  1  0  0  0  0
  6 19  1  0  0  0  0
  6 20  1  0  0  0  0
  6 21  1  0  0  0  0
  7 22  1  0  0  0  0
  7 23  1  0  0  0  0
  7 24  1  0  0  0  0
  8 25  1  0  0  0  0
  8 26  1  0  0  0  0
  9 27  1  0  0  0  0
  9 28  1  0  0  0  0
 10 29  1  0  0  0  0
 10 30  1  0  0  0  0
M  CHG  1  13  -1
M  END
> <Hybrid2>
-3.0897345542907715

> <Hybrid2>
-3.089735

$$$$
C37405700
  -OEChem-02152218503D

 30 30  0     0  0  0  0  0  0999 V2000
    9.1369  -25.5494   -9.6432 C   0  0  0  0  0  0  0  0  0  0  0  0
    9.6969  -26.6594  -10.2402 C   0  0  0  0  0  0  0  0  0  0  0  0
    7.9001  -27.6032   -9.4094 C   0  0  0  0  0  0  0  0  0  0  0  0
    5.7492  -28.1485   -8.2745 C   0  0  0  0  0  0  0  0  0  0  0  0
   14.8711  -27.8272  -10.6309 C   0  0  0  0  0  0  0  0  0  0  0  0
    4.4369  -28.8169   -8.6151 C   0  0  0  0  0  0  0  0  0  0  0  0
    7.7043  -30.8001   -8.5798 C   0  0  0  0  0  0  0  0  0  0  0  0
   10.9663  -26.6849  -10.9937 C   0  0  0  0  0  0  0  0  0  0  0  0
   13.6325  -27.2459  -11.2977 C   0  0  0  0  0  0  0  0  0  0  0  0
    7.0047  -29.9159   -9.5552 C   0  0  0  0  0  0  0  0  0  0  0  0
    8.9893  -27.8380  -10.1069 N   0  0  0  0  0  0  0  0  0  0  0  0
    6.8694  -28.5485   -9.0299 N   0  0  0  0  0  0  0  0  0  0  0  0
   14.7668  -29.0299  -10.2560 O   0  5  0  0  0  0  0  0  0  0  0  0
    5.7451  -27.2862   -7.3924 O   0  0  0  0  0  0  0  0  0  0  0  0
   15.8420  -27.0272  -10.5066 O   0  0  0  0  0  0  0  0  0  0  0  0
    7.6634  -25.9872   -8.8826 S   0  0  0  0  0  0  0  0  0  0  0  0
   12.3433  -27.4138  -10.0441 S   0  0  0  0  0  0  0  0  0  0  0  0
    9.5073  -24.5343   -9.6169 H   0  0  0  0  0  0  0  0  0  0  0  0
    4.3063  -29.7220   -8.0160 H   0  0  0  0  0  0  0  0  0  0  0  0
    4.3906  -29.0464   -9.6829 H   0  0  0  0  0  0  0  0  0  0  0  0
    3.6116  -28.1372   -8.3794 H   0  0  0  0  0  0  0  0  0  0  0  0
    7.1324  -30.8358   -7.6408 H   0  0  0  0  0  0  0  0  0  0  0  0
    7.7863  -31.8143   -8.9978 H   0  0  0  0  0  0  0  0  0  0  0  0
    8.7106  -30.4028   -8.3812 H   0  0  0  0  0  0  0  0  0  0  0  0
   10.8691  -27.2558  -11.9353 H   0  0  0  0  0  0  0  0  0  0  0  0
   11.2742  -25.6687  -11.3011 H   0  0  0  0  0  0  0  0  0  0  0  0
   13.3624  -27.8078  -12.1958 H   0  0  0  0  0  0  0  0  0  0  0  0
   13.7735  -26.1940  -11.5613 H   0  0  0  0  0  0  0  0  0  0  0  0
    7.5824  -29.8855  -10.4908 H   0  0  0  0  0  0  0  0  0  0  0  0
    6.0032  -30.3242   -9.7558 H   0  0  0  0  0  0  0  0  0  0  0  0
  1  2  2  0  0  0  0
  1 16  1  0  0  0  0
  2  8  1  0  0  0  0
  2 11  1  0  0  0  0
  3 11  2  0  0  0  0
  3 12  1  0  0  0  0
  3 16  1  0  0  0  0
  4  6  1  0  0  0  0
  4 12  1  0  0  0  0
  4 14  2  0  0  0  0
  5  9  1  0  0  0  0
  5 13  1  0  0  0  0
  5 15  2  0  0  0  0
  7 10  1  0  0  0  0
  8 17  1  0  0  0  0
  9 17  1  0  0  0  0
 10 12  1  0  0  0  0
  1 18  1  0  0  0  0
  6 19  1  0  0  0  0
  6 20  1  0  0  0  0
  6 21  1  0  0  0  0
  7 22  1  0  0  0  0
  7 23  1  0  0  0  0
  7 24  1  0  0  0  0
  8 25  1  0  0  0  0
  8 26  1  0  0  0  0
  9 27  1  0  0  0  0
  9 28  1  0  0  0  0
 10 29  1  0  0  0  0
 10 30  1  0  0  0  0
M  CHG  1  13  -1
M  END
> <Hybrid2>
-3.0897345542907715

> <Hybrid2>
-2.741027

$$$$
C37589560
  -OEChem-02152218503D

 38 39  0     1  0  0  0  0  0999 V2000
   13.3267  -27.4141  -11.0432 C   0  0  0  0  0  0  0  0  0  0  0  0
   13.4550  -27.4698   -9.6456 C   0  0  0  0  0  0  0  0  0  0  0  0
   12.0720  -27.2529  -11.6367 C   0  0  0  0  0  0  0  0  0  0  0  0
   12.3303  -27.3672   -8.8252 C   0  0  0  0  0  0  0  0  0  0  0  0
   10.9654  -27.1604  -10.8120 C   0  0  0  0  0  0  0  0  0  0  0  0
   11.0993  -27.2168   -9.4345 C   0  0  0  0  0  0  0  0  0  0  0  0
    8.1578  -28.4507   -9.6713 C   0  0  0  0  0  0  0  0  0  0  0  0
    5.6745  -26.5812   -8.8143 C   0  0  0  0  0  0  0  0  0  0  0  0
    9.5454  -26.9423  -11.1676 C   0  0  0  0  0  0  0  0  0  0  0  0
    8.8903  -27.1507   -9.7904 C   0  0  2  0  0  0  0  0  0  0  0  0
    4.7105  -31.3607   -9.6472 C   0  0  0  0  0  0  0  0  0  0  0  0
    7.1769  -30.8043   -8.0015 C   0  0  0  0  0  0  0  0  0  0  0  0
    6.6995  -27.3300   -7.9791 C   0  0  0  0  0  0  0  0  0  0  0  0
    5.6001  -30.1408   -9.8497 C   0  0  0  0  0  0  0  0  0  0  0  0
    6.2930  -29.6922   -8.5566 C   0  0  2  0  0  0  0  0  0  0  0  0
    7.0923  -28.4886   -8.7710 N   0  0  0  0  0  0  0  0  0  0  0  0
    4.6379  -27.2403   -9.1102 O   0  5  0  0  0  0  0  0  0  0  0  0
    8.5189  -29.4102  -10.3579 O   0  0  0  0  0  0  0  0  0  0  0  0
    5.9810  -25.3889   -9.0991 O   0  0  0  0  0  0  0  0  0  0  0  0
    9.9113  -27.1029   -8.7602 O   0  0  0  0  0  0  0  0  0  0  0  0
   14.2114  -27.5045  -11.6676 H   0  0  0  0  0  0  0  0  0  0  0  0
   14.4381  -27.5970   -9.2011 H   0  0  0  0  0  0  0  0  0  0  0  0
   11.9738  -27.2083  -12.7161 H   0  0  0  0  0  0  0  0  0  0  0  0
   12.4263  -27.4014   -7.7454 H   0  0  0  0  0  0  0  0  0  0  0  0
    9.3519  -25.9319  -11.5478 H   0  0  0  0  0  0  0  0  0  0  0  0
    9.2135  -27.6773  -11.9124 H   0  0  0  0  0  0  0  0  0  0  0  0
    8.1646  -26.3206   -9.5757 H   0  0  0  0  0  0  0  0  0  0  0  0
    3.9329  -31.1696   -8.9014 H   0  0  0  0  0  0  0  0  0  0  0  0
    4.2152  -31.6251  -10.5870 H   0  0  0  0  0  0  0  0  0  0  0  0
    5.2982  -32.2242   -9.3199 H   0  0  0  0  0  0  0  0  0  0  0  0
    7.9476  -31.0906   -8.7244 H   0  0  0  0  0  0  0  0  0  0  0  0
    7.6738  -30.4924   -7.0759 H   0  0  0  0  0  0  0  0  0  0  0  0
    6.5820  -31.6950   -7.7712 H   0  0  0  0  0  0  0  0  0  0  0  0
    6.2692  -27.6491   -7.0248 H   0  0  0  0  0  0  0  0  0  0  0  0
    7.5685  -26.6984   -7.7700 H   0  0  0  0  0  0  0  0  0  0  0  0
    6.3574  -30.3878  -10.6036 H   0  0  0  0  0  0  0  0  0  0  0  0
    4.9937  -29.3230  -10.2586 H   0  0  0  0  0  0  0  0  0  0  0  0
    5.5368  -29.4347   -7.8060 H   0  0  0  0  0  0  0  0  0  0  0  0
  1  2  1  0  0  0  0
  1  3  2  0  0  0  0
  2  4  2  0  0  0  0
  3  5  1  0  0  0  0
  4  6  1  0  0  0  0
  5  6  2  0  0  0  0
  5  9  1  0  0  0  0
  6 20  1  0  0  0  0
  7 10  1  0  0  0  0
  7 16  1  0  0  0  0
  7 18  2  0  0  0  0
  8 13  1  0  0  0  0
  8 17  1  0  0  0  0
  8 19  2  0  0  0  0
  9 10  1  0  0  0  0
 10 20  1  0  0  0  0
 11 14  1  0  0  0  0
 12 15  1  0  0  0  0
 13 16  1  0  0  0  0
 14 15  1  0  0  0  0
 15 16  1  0  0  0  0
  1 21  1  0  0  0  0
  2 22  1  0  0  0  0
  3 23  1  0  0  0  0
  4 24  1  0  0  0  0
  9 25  1  0  0  0  0
  9 26  1  0  0  0  0
 10 27  1  0  0  0  0
 11 28  1  0  0  0  0
 11 29  1  0  0  0  0
 11 30  1  0  0  0  0
 12 31  1  0  0  0  0
 12 32  1  0  0  0  0
 12 33  1  0  0  0  0
 13 34  1  0  0  0  0
 13 35  1  0  0  0  0
 14 36  1  0  0  0  0
 14 37  1  0  0  0  0
 15 38  1  0  0  0  0
M  CHG  1  17  -1
M  END
> <Hybrid2>
-4.2364912033081055

> <Hybrid2>
-4.236491

$$$$
C37589560
  -OEChem-02152218503D

 38 39  0     1  0  0  0  0  0999 V2000
   13.3085  -27.3221  -13.0194 C   0  0  0  0  0  0  0  0  0  0  0  0
   13.7557  -27.5100  -11.7012 C   0  0  0  0  0  0  0  0  0  0  0  0
   11.9788  -26.9788  -13.2774 C   0  0  0  0  0  0  0  0  0  0  0  0
   12.8785  -27.3589  -10.6259 C   0  0  0  0  0  0  0  0  0  0  0  0
   11.1188  -26.8400  -12.2030 C   0  0  0  0  0  0  0  0  0  0  0  0
   11.5666  -27.0275  -10.9058 C   0  0  0  0  0  0  0  0  0  0  0  0
    8.5232  -27.9177  -10.4852 C   0  0  0  0  0  0  0  0  0  0  0  0
    6.5636  -25.8751   -8.9414 C   0  0  0  0  0  0  0  0  0  0  0  0
    9.6931  -26.4431  -12.1872 C   0  0  0  0  0  0  0  0  0  0  0  0
    9.3616  -26.6973  -10.7057 C   0  0  2  0  0  0  0  0  0  0  0  0
    4.8472  -30.4370   -9.7839 C   0  0  0  0  0  0  0  0  0  0  0  0
    7.6821  -30.2875   -8.7631 C   0  0  0  0  0  0  0  0  0  0  0  0
    7.6565  -26.7968   -8.4265 C   0  0  0  0  0  0  0  0  0  0  0  0
    5.8073  -29.3055  -10.1281 C   0  0  0  0  0  0  0  0  0  0  0  0
    6.8364  -29.0448   -9.0206 C   0  0  2  0  0  0  0  0  0  0  0  0
    7.7047  -27.9188   -9.3552 N   0  0  0  0  0  0  0  0  0  0  0  0
    5.4132  -26.3929   -9.0115 O   0  5  0  0  0  0  0  0  0  0  0  0
    8.5905  -28.8481  -11.2929 O   0  0  0  0  0  0  0  0  0  0  0  0
    6.9389  -24.7022   -9.2240 O   0  0  0  0  0  0  0  0  0  0  0  0
   10.5952  -26.8460   -9.9558 O   0  0  0  0  0  0  0  0  0  0  0  0
   14.0023  -27.4524  -13.8454 H   0  0  0  0  0  0  0  0  0  0  0  0
   14.7926  -27.7782  -11.5188 H   0  0  0  0  0  0  0  0  0  0  0  0
   11.6344  -26.8323  -14.2957 H   0  0  0  0  0  0  0  0  0  0  0  0
   13.2221  -27.4949   -9.6063 H   0  0  0  0  0  0  0  0  0  0  0  0
    9.5415  -25.3891  -12.4503 H   0  0  0  0  0  0  0  0  0  0  0  0
    9.1063  -27.0726  -12.8688 H   0  0  0  0  0  0  0  0  0  0  0  0
    8.8155  -25.8162  -10.2730 H   0  0  0  0  0  0  0  0  0  0  0  0
    4.2978  -30.2287   -8.8608 H   0  0  0  0  0  0  0  0  0  0  0  0
    4.1150  -30.5663  -10.5873 H   0  0  0  0  0  0  0  0  0  0  0  0
    5.3844  -31.3827   -9.6602 H   0  0  0  0  0  0  0  0  0  0  0  0
    8.2186  -30.5913   -9.6677 H   0  0  0  0  0  0  0  0  0  0  0  0
    8.4184  -30.1100   -7.9710 H   0  0  0  0  0  0  0  0  0  0  0  0
    7.0532  -31.1265   -8.4452 H   0  0  0  0  0  0  0  0  0  0  0  0
    7.4280  -27.1486   -7.4157 H   0  0  0  0  0  0  0  0  0  0  0  0
    8.6214  -26.2811   -8.4009 H   0  0  0  0  0  0  0  0  0  0  0  0
    6.3284  -29.5664  -11.0573 H   0  0  0  0  0  0  0  0  0  0  0  0
    5.2273  -28.3963  -10.3289 H   0  0  0  0  0  0  0  0  0  0  0  0
    6.3168  -28.7733   -8.0943 H   0  0  0  0  0  0  0  0  0  0  0  0
  1  2  1  0  0  0  0
  1  3  2  0  0  0  0
  2  4  2  0  0  0  0
  3  5  1  0  0  0  0
  4  6  1  0  0  0  0
  5  6  2  0  0  0  0
  5  9  1  0  0  0  0
  6 20  1  0  0  0  0
  7 10  1  0  0  0  0
  7 16  1  0  0  0  0
  7 18  2  0  0  0  0
  8 13  1  0  0  0  0
  8 17  1  0  0  0  0
  8 19  2  0  0  0  0
  9 10  1  0  0  0  0
 10 20  1  0  0  0  0
 11 14  1  0  0  0  0
 12 15  1  0  0  0  0
 13 16  1  0  0  0  0
 14 15  1  0  0  0  0
 15 16  1  0  0  0  0
  1 21  1  0  0  0  0
  2 22  1  0  0  0  0
  3 23  1  0  0  0  0
  4 24  1  0  0  0  0
  9 25  1  0  0  0  0
  9 26  1  0  0  0  0
 10 27  1  0  0  0  0
 11 28  1  0  0  0  0
 11 29  1  0  0  0  0
 11 30  1  0  0  0  0
 12 31  1  0  0  0  0
 12 32  1  0  0  0  0
 12 33  1  0  0  0  0
 13 34  1  0  0  0  0
 13 35  1  0  0  0  0
 14 36  1  0  0  0  0
 14 37  1  0  0  0  0
 15 38  1  0  0  0  0
M  CHG  1  17  -1
M  END
> <Hybrid2>
-4.2364912033081055

> <Hybrid2>
-4.170927

$$$$
C37590570
  -OEChem-02152218503D

 37 37  0     1  0  0  0  0  0999 V2000
    8.3882  -29.0834   -9.4145 C   0  0  0  0  0  0  0  0  0  0  0  0
    7.0181  -29.1215   -9.0615 C   0  0  0  0  0  0  0  0  0  0  0  0
    8.7946  -27.7826   -9.2282 C   0  0  0  0  0  0  0  0  0  0  0  0
    6.6850  -27.8412   -8.6845 C   0  0  0  0  0  0  0  0  0  0  0  0
   10.0986  -27.1301   -9.4259 C   0  0  0  0  0  0  0  0  0  0  0  0
   12.4127  -26.4760  -11.0275 C   0  0  0  0  0  0  0  0  0  0  0  0
    8.4794  -23.8486   -9.3453 C   0  0  0  0  0  0  0  0  0  0  0  0
    9.3612  -25.7551  -12.6161 C   0  0  0  0  0  0  0  0  0  0  0  0
    4.9644  -25.4001  -10.2073 C   0  0  0  0  0  0  0  0  0  0  0  0
    5.4362  -27.2241   -8.2158 C   0  0  0  0  0  0  0  0  0  0  0  0
   11.4564  -25.4008  -10.5394 C   0  0  0  0  0  0  0  0  0  0  0  0
    8.7813  -24.0889  -10.8189 C   0  0  0  0  0  0  0  0  0  0  0  0
    9.0646  -25.5637  -11.1324 C   0  0  2  0  0  0  0  0  0  0  0  0
   10.1672  -26.0663  -10.3466 N   0  0  0  0  0  0  0  0  0  0  0  0
   12.0813  -27.0389  -12.1091 O   0  5  0  0  0  0  0  0  0  0  0  0
   11.0327  -27.5653   -8.7534 O   0  0  0  0  0  0  0  0  0  0  0  0
   13.4263  -26.6653  -10.2973 O   0  0  0  0  0  0  0  0  0  0  0  0
    7.7624  -27.0190   -8.7832 O   0  0  0  0  0  0  0  0  0  0  0  0
    4.2362  -26.9203   -9.5598 S   0  0  0  0  0  0  0  0  0  0  0  0
    9.0002  -29.9038   -9.7615 H   0  0  0  0  0  0  0  0  0  0  0  0
    6.3578  -29.9769   -9.0813 H   0  0  0  0  0  0  0  0  0  0  0  0
    9.3091  -24.1712   -8.7090 H   0  0  0  0  0  0  0  0  0  0  0  0
    8.3139  -22.7817   -9.1644 H   0  0  0  0  0  0  0  0  0  0  0  0
    7.5779  -24.3878   -9.0371 H   0  0  0  0  0  0  0  0  0  0  0  0
   10.2307  -25.1643  -12.9218 H   0  0  0  0  0  0  0  0  0  0  0  0
    9.5623  -26.8070  -12.8487 H   0  0  0  0  0  0  0  0  0  0  0  0
    8.5075  -25.4409  -13.2267 H   0  0  0  0  0  0  0  0  0  0  0  0
    4.3747  -25.0359  -11.0522 H   0  0  0  0  0  0  0  0  0  0  0  0
    5.9867  -25.5918  -10.5425 H   0  0  0  0  0  0  0  0  0  0  0  0
    4.9814  -24.6351   -9.4272 H   0  0  0  0  0  0  0  0  0  0  0  0
    4.9281  -27.8467   -7.4531 H   0  0  0  0  0  0  0  0  0  0  0  0
    5.6207  -26.2538   -7.7140 H   0  0  0  0  0  0  0  0  0  0  0  0
   11.3633  -24.5962  -11.2754 H   0  0  0  0  0  0  0  0  0  0  0  0
   11.8060  -24.9662   -9.5978 H   0  0  0  0  0  0  0  0  0  0  0  0
    7.9202  -23.7490  -11.4071 H   0  0  0  0  0  0  0  0  0  0  0  0
    9.6366  -23.4676  -11.1120 H   0  0  0  0  0  0  0  0  0  0  0  0
    8.1905  -26.1693  -10.8662 H   0  0  0  0  0  0  0  0  0  0  0  0
  1  2  1  0  0  0  0
  1  3  2  0  0  0  0
  2  4  2  0  0  0  0
  3  5  1  0  0  0  0
  3 18  1  0  0  0  0
  4 10  1  0  0  0  0
  4 18  1  0  0  0  0
  5 14  1  0  0  0  0
  5 16  2  0  0  0  0
  6 11  1  0  0  0  0
  6 15  1  0  0  0  0
  6 17  2  0  0  0  0
  7 12  1  0  0  0  0
  8 13  1  0  0  0  0
  9 19  1  0  0  0  0
 10 19  1  0  0  0  0
 11 14  1  0  0  0  0
 12 13  1  0  0  0  0
 13 14  1  0  0  0  0
  1 20  1  0  0  0  0
  2 21  1  0  0  0  0
  7 22  1  0  0  0  0
  7 23  1  0  0  0  0
  7 24  1  0  0  0  0
  8 25  1  0  0  0  0
  8 26  1  0  0  0  0
  8 27  1  0  0  0  0
  9 28  1  0  0  0  0
  9 29  1  0  0  0  0
  9 30  1  0  0  0  0
 10 31  1  0  0  0  0
 10 32  1  0  0  0  0
 11 33  1  0  0  0  0
 11 34  1  0  0  0  0
 12 35  1  0  0  0  0
 12 36  1  0  0  0  0
 13 37  1  0  0  0  0
M  CHG  1  15  -1
M  END
> <Hybrid2>
-2.8556244373321533

> <Hybrid2>
-2.855624

$$$$
C37590570
  -OEChem-02152218503D

 37 37  0     1  0  0  0  0  0999 V2000
    8.6748  -26.0374   -8.9008 C   0  0  0  0  0  0  0  0  0  0  0  0
    7.4146  -26.6801   -8.8542 C   0  0  0  0  0  0  0  0  0  0  0  0
    9.4786  -26.8292   -9.6875 C   0  0  0  0  0  0  0  0  0  0  0  0
    7.5381  -27.8187   -9.6160 C   0  0  0  0  0  0  0  0  0  0  0  0
   10.8838  -26.6873  -10.1006 C   0  0  0  0  0  0  0  0  0  0  0  0
   13.2859  -27.6688  -11.3712 C   0  0  0  0  0  0  0  0  0  0  0  0
    9.9194  -24.1313  -12.5365 C   0  0  0  0  0  0  0  0  0  0  0  0
   10.4335  -27.8832  -13.4140 C   0  0  0  0  0  0  0  0  0  0  0  0
    7.8504  -31.0606   -8.8210 C   0  0  0  0  0  0  0  0  0  0  0  0
    6.6069  -28.9012   -9.9642 C   0  0  0  0  0  0  0  0  0  0  0  0
   12.5503  -26.4491  -11.9006 C   0  0  0  0  0  0  0  0  0  0  0  0
   10.1754  -25.3783  -13.3731 C   0  0  0  0  0  0  0  0  0  0  0  0
   10.1735  -26.6637  -12.5357 C   0  0  2  0  0  0  0  0  0  0  0  0
   11.1572  -26.6055  -11.4799 N   0  0  0  0  0  0  0  0  0  0  0  0
   12.8571  -28.7798  -11.7936 O   0  5  0  0  0  0  0  0  0  0  0  0
   11.7153  -26.6396   -9.1949 O   0  0  0  0  0  0  0  0  0  0  0  0
   14.2422  -27.4198  -10.5839 O   0  0  0  0  0  0  0  0  0  0  0  0
    8.7932  -27.9170  -10.1276 O   0  0  0  0  0  0  0  0  0  0  0  0
    6.3441  -30.0892   -8.6010 S   0  0  0  0  0  0  0  0  0  0  0  0
    8.9587  -25.1125   -8.4194 H   0  0  0  0  0  0  0  0  0  0  0  0
    6.5287  -26.3523   -8.3292 H   0  0  0  0  0  0  0  0  0  0  0  0
   10.6702  -24.0169  -11.7486 H   0  0  0  0  0  0  0  0  0  0  0  0
    9.9598  -23.2390  -13.1694 H   0  0  0  0  0  0  0  0  0  0  0  0
    8.9307  -24.1697  -12.0684 H   0  0  0  0  0  0  0  0  0  0  0  0
   11.4008  -27.8028  -13.9204 H   0  0  0  0  0  0  0  0  0  0  0  0
   10.4312  -28.8062  -12.8233 H   0  0  0  0  0  0  0  0  0  0  0  0
    9.6575  -27.9820  -14.1812 H   0  0  0  0  0  0  0  0  0  0  0  0
    7.8910  -31.8577   -8.0746 H   0  0  0  0  0  0  0  0  0  0  0  0
    8.7266  -30.4181   -8.7043 H   0  0  0  0  0  0  0  0  0  0  0  0
    7.8631  -31.5047   -9.8193 H   0  0  0  0  0  0  0  0  0  0  0  0
    5.6127  -28.5121  -10.2602 H   0  0  0  0  0  0  0  0  0  0  0  0
    6.9587  -29.4794  -10.8412 H   0  0  0  0  0  0  0  0  0  0  0  0
   12.6149  -26.3960  -12.9917 H   0  0  0  0  0  0  0  0  0  0  0  0
   12.9729  -25.5286  -11.4862 H   0  0  0  0  0  0  0  0  0  0  0  0
    9.3970  -25.4425  -14.1432 H   0  0  0  0  0  0  0  0  0  0  0  0
   11.1345  -25.2660  -13.8937 H   0  0  0  0  0  0  0  0  0  0  0  0
    9.1990  -26.7817  -12.0477 H   0  0  0  0  0  0  0  0  0  0  0  0
  1  2  1  0  0  0  0
  1  3  2  0  0  0  0
  2  4  2  0  0  0  0
  3  5  1  0  0  0  0
  3 18  1  0  0  0  0
  4 10  1  0  0  0  0
  4 18  1  0  0  0  0
  5 14  1  0  0  0  0
  5 16  2  0  0  0  0
  6 11  1  0  0  0  0
  6 15  1  0  0  0  0
  6 17  2  0  0  0  0
  7 12  1  0  0  0  0
  8 13  1  0  0  0  0
  9 19  1  0  0  0  0
 10 19  1  0  0  0  0
 11 14  1  0  0  0  0
 12 13  1  0  0  0  0
 13 14  1  0  0  0  0
  1 20  1  0  0  0  0
  2 21  1  0  0  0  0
  7 22  1  0  0  0  0
  7 23  1  0  0  0  0
  7 24  1  0  0  0  0
  8 25  1  0  0  0  0
  8 26  1  0  0  0  0
  8 27  1  0  0  0  0
  9 28  1  0  0  0  0
  9 29  1  0  0  0  0
  9 30  1  0  0  0  0
 10 31  1  0  0  0  0
 10 32  1  0  0  0  0
 11 33  1  0  0  0  0
 11 34  1  0  0  0  0
 12 35  1  0  0  0  0
 12 36  1  0  0  0  0
 13 37  1  0  0  0  0
M  CHG  1  15  -1
M  END
> <Hybrid2>
-2.8556244373321533

> <Hybrid2>
-2.509457

$$$$
C37593310
  -OEChem-02152218503D

 32 33  0     1  0  0  0  0  0999 V2000
   12.0656  -26.8832  -11.2857 C   0  0  0  0  0  0  0  0  0  0  0  0
   11.5377  -27.2938  -12.4886 C   0  0  0  0  0  0  0  0  0  0  0  0
   10.1766  -26.3819   -8.2259 C   0  0  0  0  0  0  0  0  0  0  0  0
   11.0723  -26.7774  -10.2667 C   0  0  0  0  0  0  0  0  0  0  0  0
    9.8047  -27.1167  -10.7381 C   0  0  0  0  0  0  0  0  0  0  0  0
    8.7213  -27.0662   -9.8688 C   0  0  0  0  0  0  0  0  0  0  0  0
    6.2703  -25.3678  -10.7532 C   0  0  0  0  0  0  0  0  0  0  0  0
    6.8896  -30.7872   -8.6259 C   0  0  0  0  0  0  0  0  0  0  0  0
    5.8318  -27.9627   -8.5593 C   0  0  0  0  0  0  0  0  0  0  0  0
    6.8019  -26.6436  -11.3845 C   0  0  0  0  0  0  0  0  0  0  0  0
    7.6368  -29.5945   -9.2087 C   0  0  0  0  0  0  0  0  0  0  0  0
    6.6944  -28.4889   -9.7017 C   0  0  2  0  0  0  0  0  0  0  0  0
   11.2889  -26.3966   -8.9794 N   0  0  0  0  0  0  0  0  0  0  0  0
    8.9183  -26.6908   -8.5895 N   0  0  0  0  0  0  0  0  0  0  0  0
    7.4294  -27.3985  -10.2989 N   0  0  0  0  0  0  0  0  0  0  0  0
    7.1420  -24.6373  -10.2027 O   0  5  0  0  0  0  0  0  0  0  0  0
    5.0246  -25.1903  -10.8677 O   0  0  0  0  0  0  0  0  0  0  0  0
    9.8511  -27.5531  -12.3972 S   0  0  0  0  0  0  0  0  0  0  0  0
   13.1173  -26.6688  -11.1435 H   0  0  0  0  0  0  0  0  0  0  0  0
   12.0656  -27.4537  -13.4181 H   0  0  0  0  0  0  0  0  0  0  0  0
   10.3091  -26.0834   -7.1921 H   0  0  0  0  0  0  0  0  0  0  0  0
    6.2100  -31.2312   -9.3598 H   0  0  0  0  0  0  0  0  0  0  0  0
    7.5994  -31.5608   -8.3161 H   0  0  0  0  0  0  0  0  0  0  0  0
    6.3055  -30.4928   -7.7482 H   0  0  0  0  0  0  0  0  0  0  0  0
    6.4523  -27.5539   -7.7553 H   0  0  0  0  0  0  0  0  0  0  0  0
    5.1537  -27.1739   -8.9040 H   0  0  0  0  0  0  0  0  0  0  0  0
    5.2158  -28.7641   -8.1366 H   0  0  0  0  0  0  0  0  0  0  0  0
    7.5351  -26.4183  -12.1650 H   0  0  0  0  0  0  0  0  0  0  0  0
    5.9900  -27.2243  -11.8332 H   0  0  0  0  0  0  0  0  0  0  0  0
    8.2999  -29.1911   -8.4337 H   0  0  0  0  0  0  0  0  0  0  0  0
    8.2758  -29.9424  -10.0297 H   0  0  0  0  0  0  0  0  0  0  0  0
    6.0386  -28.8883  -10.4840 H   0  0  0  0  0  0  0  0  0  0  0  0
  1  2  2  0  0  0  0
  1  4  1  0  0  0  0
  2 18  1  0  0  0  0
  3 13  2  0  0  0  0
  3 14  1  0  0  0  0
  4  5  2  0  0  0  0
  4 13  1  0  0  0  0
  5  6  1  0  0  0  0
  5 18  1  0  0  0  0
  6 14  2  0  0  0  0
  6 15  1  0  0  0  0
  7 10  1  0  0  0  0
  7 16  1  0  0  0  0
  7 17  2  0  0  0  0
  8 11  1  0  0  0  0
  9 12  1  0  0  0  0
 10 15  1  0  0  0  0
 11 12  1  0  0  0  0
 12 15  1  0  0  0  0
  1 19  1  0  0  0  0
  2 20  1  0  0  0  0
  3 21  1  0  0  0  0
  8 22  1  0  0  0  0
  8 23  1  0  0  0  0
  8 24  1  0  0  0  0
  9 25  1  0  0  0  0
  9 26  1  0  0  0  0
  9 27  1  0  0  0  0
 10 28  1  0  0  0  0
 10 29  1  0  0  0  0
 11 30  1  0  0  0  0
 11 31  1  0  0  0  0
 12 32  1  0  0  0  0
M  CHG  1  16  -1
M  END
> <Hybrid2>
-4.738765239715576

> <Hybrid2>
-4.738765

$$$$
C37593310
  -OEChem-02152218503D

 32 33  0     1  0  0  0  0  0999 V2000
   12.1519  -26.8930  -11.0940 C   0  0  0  0  0  0  0  0  0  0  0  0
   11.6403  -27.3076  -12.3025 C   0  0  0  0  0  0  0  0  0  0  0  0
   10.1836  -25.9920   -8.1792 C   0  0  0  0  0  0  0  0  0  0  0  0
   11.1279  -26.6102  -10.1412 C   0  0  0  0  0  0  0  0  0  0  0  0
    9.8543  -26.8231  -10.6672 C   0  0  0  0  0  0  0  0  0  0  0  0
    8.7419  -26.5932   -9.8660 C   0  0  0  0  0  0  0  0  0  0  0  0
    6.5654  -24.6695  -10.9783 C   0  0  0  0  0  0  0  0  0  0  0  0
    6.4080  -29.9903   -8.5401 C   0  0  0  0  0  0  0  0  0  0  0  0
    5.7011  -27.0608   -8.6817 C   0  0  0  0  0  0  0  0  0  0  0  0
    6.9689  -26.0344  -11.5105 C   0  0  0  0  0  0  0  0  0  0  0  0
    7.3242  -28.9312   -9.1396 C   0  0  0  0  0  0  0  0  0  0  0  0
    6.5505  -27.7520   -9.7432 C   0  0  2  0  0  0  0  0  0  0  0  0
   11.3230  -26.1832   -8.8650 N   0  0  0  0  0  0  0  0  0  0  0  0
    8.9173  -26.1696   -8.5987 N   0  0  0  0  0  0  0  0  0  0  0  0
    7.4429  -26.7937  -10.3526 N   0  0  0  0  0  0  0  0  0  0  0  0
    7.4904  -24.0172  -10.4167 O   0  5  0  0  0  0  0  0  0  0  0  0
    5.3582  -24.3519  -11.1739 O   0  0  0  0  0  0  0  0  0  0  0  0
    9.9321  -27.3583  -12.2959 S   0  0  0  0  0  0  0  0  0  0  0  0
   13.2132  -26.7976  -10.9023 H   0  0  0  0  0  0  0  0  0  0  0  0
   12.1916  -27.5834  -13.1903 H   0  0  0  0  0  0  0  0  0  0  0  0
   10.2982  -25.6514   -7.1563 H   0  0  0  0  0  0  0  0  0  0  0  0
    5.7179  -30.3923   -9.2881 H   0  0  0  0  0  0  0  0  0  0  0  0
    7.0012  -30.8234   -8.1498 H   0  0  0  0  0  0  0  0  0  0  0  0
    5.8199  -29.5775   -7.7142 H   0  0  0  0  0  0  0  0  0  0  0  0
    6.3248  -26.6825   -7.8653 H   0  0  0  0  0  0  0  0  0  0  0  0
    5.1430  -26.2184   -9.1057 H   0  0  0  0  0  0  0  0  0  0  0  0
    4.9709  -27.7571   -8.2544 H   0  0  0  0  0  0  0  0  0  0  0  0
    7.7633  -25.9441  -12.2578 H   0  0  0  0  0  0  0  0  0  0  0  0
    6.1163  -26.5395  -11.9749 H   0  0  0  0  0  0  0  0  0  0  0  0
    7.9909  -28.5650   -8.3495 H   0  0  0  0  0  0  0  0  0  0  0  0
    7.9573  -29.4003   -9.9030 H   0  0  0  0  0  0  0  0  0  0  0  0
    5.8919  -28.1156  -10.5405 H   0  0  0  0  0  0  0  0  0  0  0  0
  1  2  2  0  0  0  0
  1  4  1  0  0  0  0
  2 18  1  0  0  0  0
  3 13  2  0  0  0  0
  3 14  1  0  0  0  0
  4  5  2  0  0  0  0
  4 13  1  0  0  0  0
  5  6  1  0  0  0  0
  5 18  1  0  0  0  0
  6 14  2  0  0  0  0
  6 15  1  0  0  0  0
  7 10  1  0  0  0  0
  7 16  1  0  0  0  0
  7 17  2  0  0  0  0
  8 11  1  0  0  0  0
  9 12  1  0  0  0  0
 10 15  1  0  0  0  0
 11 12  1  0  0  0  0
 12 15  1  0  0  0  0
  1 19  1  0  0  0  0
  2 20  1  0  0  0  0
  3 21  1  0  0  0  0
  8 22  1  0  0  0  0
  8 23  1  0  0  0  0
  8 24  1  0  0  0  0
  9 25  1  0  0  0  0
  9 26  1  0  0  0  0
  9 27  1  0  0  0  0
 10 28  1  0  0  0  0
 10 29  1  0  0  0  0
 11 30  1  0  0  0  0
 11 31  1  0  0  0  0
 12 32  1  0  0  0  0
M  CHG  1  16  -1
M  END
> <Hybrid2>
-4.738765239715576

> <Hybrid2>
-3.990403

$$$$
C37594887
  -OEChem-02152218503D

 42 43  0     1  0  0  0  0  0999 V2000
   10.6901  -26.7577  -12.0123 C   0  0  0  0  0  0  0  0  0  0  0  0
   11.4820  -26.7718   -9.7298 C   0  0  0  0  0  0  0  0  0  0  0  0
    9.4450  -26.3036  -11.5775 C   0  0  0  0  0  0  0  0  0  0  0  0
   10.2369  -26.3177   -9.2950 C   0  0  0  0  0  0  0  0  0  0  0  0
   11.7086  -26.9919  -11.0884 C   0  0  0  0  0  0  0  0  0  0  0  0
    9.2184  -26.0836  -10.2189 C   0  0  0  0  0  0  0  0  0  0  0  0
    6.2101  -26.7889   -8.7946 C   0  0  0  0  0  0  0  0  0  0  0  0
    7.7310  -23.3740  -10.5432 C   0  0  0  0  0  0  0  0  0  0  0  0
    6.0466  -30.3359   -9.7505 C   0  0  0  0  0  0  0  0  0  0  0  0
    7.3492  -30.3091   -8.9606 C   0  0  0  0  0  0  0  0  0  0  0  0
    5.3462  -29.0668   -9.2902 C   0  0  0  0  0  0  0  0  0  0  0  0
    7.7136  -28.8312   -8.9534 C   0  0  0  0  0  0  0  0  0  0  0  0
   13.0401  -27.4778  -11.5523 C   0  0  0  0  0  0  0  0  0  0  0  0
    7.0816  -24.7521   -7.6716 C   0  0  0  0  0  0  0  0  0  0  0  0
    7.1580  -24.7756  -10.6707 C   0  0  0  0  0  0  0  0  0  0  0  0
    7.4388  -25.9692   -8.4925 C   0  0  2  0  0  0  0  0  0  0  0  0
    6.4289  -28.1396   -8.9958 N   0  0  0  0  0  0  0  0  0  0  0  0
    7.9622  -25.6233   -9.7798 N   0  0  3  0  0  0  0  0  0  0  0  0
    8.9477  -23.2599  -10.8643 O   0  5  0  0  0  0  0  0  0  0  0  0
    5.1007  -26.2553   -8.8449 O   0  0  0  0  0  0  0  0  0  0  0  0
    6.9164  -22.4949  -10.1433 O   0  0  0  0  0  0  0  0  0  0  0  0
   10.8576  -26.9275  -13.0724 H   0  0  0  0  0  0  0  0  0  0  0  0
   12.2689  -26.9531   -9.0027 H   0  0  0  0  0  0  0  0  0  0  0  0
    8.6578  -26.1258  -12.3056 H   0  0  0  0  0  0  0  0  0  0  0  0
   10.0712  -26.1502   -8.2339 H   0  0  0  0  0  0  0  0  0  0  0  0
    6.2553  -30.2865  -10.8257 H   0  0  0  0  0  0  0  0  0  0  0  0
    5.4575  -31.2353   -9.5513 H   0  0  0  0  0  0  0  0  0  0  0  0
    7.1775  -30.6626   -7.9371 H   0  0  0  0  0  0  0  0  0  0  0  0
    8.1256  -30.9292   -9.4171 H   0  0  0  0  0  0  0  0  0  0  0  0
    4.6696  -28.6511  -10.0428 H   0  0  0  0  0  0  0  0  0  0  0  0
    4.7861  -29.2294   -8.3628 H   0  0  0  0  0  0  0  0  0  0  0  0
    8.2884  -28.5433   -8.0691 H   0  0  0  0  0  0  0  0  0  0  0  0
    8.2737  -28.5527   -9.8526 H   0  0  0  0  0  0  0  0  0  0  0  0
   13.6995  -26.6302  -11.7757 H   0  0  0  0  0  0  0  0  0  0  0  0
   13.5235  -28.1033  -10.7906 H   0  0  0  0  0  0  0  0  0  0  0  0
   12.9466  -28.0937  -12.4563 H   0  0  0  0  0  0  0  0  0  0  0  0
    6.3553  -24.1122   -8.1859 H   0  0  0  0  0  0  0  0  0  0  0  0
    6.6387  -25.0540   -6.7166 H   0  0  0  0  0  0  0  0  0  0  0  0
    7.9682  -24.1441   -7.4632 H   0  0  0  0  0  0  0  0  0  0  0  0
    7.2268  -25.1343  -11.7023 H   0  0  0  0  0  0  0  0  0  0  0  0
    6.1061  -24.7957  -10.3695 H   0  0  0  0  0  0  0  0  0  0  0  0
    8.1604  -26.6050   -7.9817 H   0  0  0  0  0  0  0  0  0  0  0  0
  1  3  2  0  0  0  0
  1  5  1  0  0  0  0
  2  4  1  0  0  0  0
  2  5  2  0  0  0  0
  3  6  1  0  0  0  0
  4  6  2  0  0  0  0
  5 13  1  0  0  0  0
  6 18  1  0  0  0  0
  7 16  1  0  0  0  0
  7 17  1  0  0  0  0
  7 20  2  0  0  0  0
  8 15  1  0  0  0  0
  8 19  1  0  0  0  0
  8 21  2  0  0  0  0
  9 10  1  0  0  0  0
  9 11  1  0  0  0  0
 10 12  1  0  0  0  0
 11 17  1  0  0  0  0
 12 17  1  0  0  0  0
 14 16  1  0  0  0  0
 15 18  1  0  0  0  0
 16 18  1  0  0  0  0
  1 22  1  0  0  0  0
  2 23  1  0  0  0  0
  3 24  1  0  0  0  0
  4 25  1  0  0  0  0
  9 26  1  0  0  0  0
  9 27  1  0  0  0  0
 10 28  1  0  0  0  0
 10 29  1  0  0  0  0
 11 30  1  0  0  0  0
 11 31  1  0  0  0  0
 12 32  1  0  0  0  0
 12 33  1  0  0  0  0
 13 34  1  0  0  0  0
 13 35  1  0  0  0  0
 13 36  1  0  0  0  0
 14 37  1  0  0  0  0
 14 38  1  0  0  0  0
 14 39  1  0  0  0  0
 15 40  1  0  0  0  0
 15 41  1  0  0  0  0
 16 42  1  0  0  0  0
M  CHG  1  19  -1
M  END
> <Hybrid2>
-6.124957084655762

> <Hybrid2>
-6.124957

$$$$
C37594887
  -OEChem-02152218503D

 42 43  0     1  0  0  0  0  0999 V2000
    6.4681  -28.8440   -8.1288 C   0  0  0  0  0  0  0  0  0  0  0  0
    7.9549  -29.7322   -9.8134 C   0  0  0  0  0  0  0  0  0  0  0  0
    6.7902  -27.5470   -8.5284 C   0  0  0  0  0  0  0  0  0  0  0  0
    8.2769  -28.4352  -10.2131 C   0  0  0  0  0  0  0  0  0  0  0  0
    7.0505  -29.9366   -8.7713 C   0  0  0  0  0  0  0  0  0  0  0  0
    7.6946  -27.3426   -9.5705 C   0  0  0  0  0  0  0  0  0  0  0  0
   10.2982  -25.7915  -10.3538 C   0  0  0  0  0  0  0  0  0  0  0  0
    6.0061  -24.7531   -9.8916 C   0  0  0  0  0  0  0  0  0  0  0  0
   13.4357  -27.2459  -11.6036 C   0  0  0  0  0  0  0  0  0  0  0  0
   12.7150  -26.9457  -12.9118 C   0  0  0  0  0  0  0  0  0  0  0  0
   12.7048  -26.3622  -10.6046 C   0  0  0  0  0  0  0  0  0  0  0  0
   11.2636  -26.8008  -12.4765 C   0  0  0  0  0  0  0  0  0  0  0  0
    6.7071  -31.3237   -8.3445 C   0  0  0  0  0  0  0  0  0  0  0  0
    8.7053  -24.4499  -11.7073 C   0  0  0  0  0  0  0  0  0  0  0  0
    7.3933  -24.8952   -9.2878 C   0  0  0  0  0  0  0  0  0  0  0  0
    8.9515  -25.7785  -11.0314 C   0  0  2  0  0  0  0  0  0  0  0  0
   11.3426  -26.2886  -11.1120 N   0  0  0  0  0  0  0  0  0  0  0  0
    8.0185  -26.0335   -9.9755 N   0  0  3  0  0  0  0  0  0  0  0  0
    5.3069  -23.8144   -9.4158 O   0  5  0  0  0  0  0  0  0  0  0  0
   10.4211  -25.3730   -9.2015 O   0  0  0  0  0  0  0  0  0  0  0  0
    5.7290  -25.5837  -10.8025 O   0  0  0  0  0  0  0  0  0  0  0  0
    5.7635  -28.9940   -7.3154 H   0  0  0  0  0  0  0  0  0  0  0  0
    8.4148  -30.5772  -10.3186 H   0  0  0  0  0  0  0  0  0  0  0  0
    6.3318  -26.7026   -8.0201 H   0  0  0  0  0  0  0  0  0  0  0  0
    8.9834  -28.2875  -11.0258 H   0  0  0  0  0  0  0  0  0  0  0  0
   13.3126  -28.3025  -11.3378 H   0  0  0  0  0  0  0  0  0  0  0  0
   14.5049  -27.0227  -11.6566 H   0  0  0  0  0  0  0  0  0  0  0  0
   13.0798  -26.0029  -13.3362 H   0  0  0  0  0  0  0  0  0  0  0  0
   12.8521  -27.7372  -13.6538 H   0  0  0  0  0  0  0  0  0  0  0  0
   12.7213  -26.7595   -9.5854 H   0  0  0  0  0  0  0  0  0  0  0  0
   13.1112  -25.3448  -10.5940 H   0  0  0  0  0  0  0  0  0  0  0  0
   10.6961  -26.1238  -13.1206 H   0  0  0  0  0  0  0  0  0  0  0  0
   10.7576  -27.7716  -12.4410 H   0  0  0  0  0  0  0  0  0  0  0  0
    5.8441  -31.6949   -8.9106 H   0  0  0  0  0  0  0  0  0  0  0  0
    7.5491  -32.0097   -8.5041 H   0  0  0  0  0  0  0  0  0  0  0  0
    6.4643  -31.3627   -7.2745 H   0  0  0  0  0  0  0  0  0  0  0  0
    8.7438  -23.6171  -10.9957 H   0  0  0  0  0  0  0  0  0  0  0  0
    9.4661  -24.2661  -12.4733 H   0  0  0  0  0  0  0  0  0  0  0  0
    7.7213  -24.4290  -12.1873 H   0  0  0  0  0  0  0  0  0  0  0  0
    7.3343  -25.0860   -8.2118 H   0  0  0  0  0  0  0  0  0  0  0  0
    7.9815  -23.9856   -9.4437 H   0  0  0  0  0  0  0  0  0  0  0  0
    8.9132  -26.6061  -11.7383 H   0  0  0  0  0  0  0  0  0  0  0  0
  1  3  2  0  0  0  0
  1  5  1  0  0  0  0
  2  4  1  0  0  0  0
  2  5  2  0  0  0  0
  3  6  1  0  0  0  0
  4  6  2  0  0  0  0
  5 13  1  0  0  0  0
  6 18  1  0  0  0  0
  7 16  1  0  0  0  0
  7 17  1  0  0  0  0
  7 20  2  0  0  0  0
  8 15  1  0  0  0  0
  8 19  1  0  0  0  0
  8 21  2  0  0  0  0
  9 10  1  0  0  0  0
  9 11  1  0  0  0  0
 10 12  1  0  0  0  0
 11 17  1  0  0  0  0
 12 17  1  0  0  0  0
 14 16  1  0  0  0  0
 15 18  1  0  0  0  0
 16 18  1  0  0  0  0
  1 22  1  0  0  0  0
  2 23  1  0  0  0  0
  3 24  1  0  0  0  0
  4 25  1  0  0  0  0
  9 26  1  0  0  0  0
  9 27  1  0  0  0  0
 10 28  1  0  0  0  0
 10 29  1  0  0  0  0
 11 30  1  0  0  0  0
 11 31  1  0  0  0  0
 12 32  1  0  0  0  0
 12 33  1  0  0  0  0
 13 34  1  0  0  0  0
 13 35  1  0  0  0  0
 13 36  1  0  0  0  0
 14 37  1  0  0  0  0
 14 38  1  0  0  0  0
 14 39  1  0  0  0  0
 15 40  1  0  0  0  0
 15 41  1  0  0  0  0
 16 42  1  0  0  0  0
M  CHG  1  19  -1
M  END
> <Hybrid2>
-6.124957084655762

> <Hybrid2>
-5.461372

$$$$
C37828011
  -OEChem-02152218503D

 39 40  0     0  0  0  0  0  0999 V2000
   12.4778  -25.9492  -11.7854 C   0  0  0  0  0  0  0  0  0  0  0  0
   13.5244  -26.6705  -12.3162 C   0  0  0  0  0  0  0  0  0  0  0  0
   13.2038  -27.1336   -9.9220 C   0  0  0  0  0  0  0  0  0  0  0  0
   12.2920  -26.2173  -10.3984 C   0  0  0  0  0  0  0  0  0  0  0  0
    5.8027  -26.6916   -9.3678 C   0  0  0  0  0  0  0  0  0  0  0  0
    3.7944  -30.3766   -7.7279 C   0  0  0  0  0  0  0  0  0  0  0  0
    8.0567  -27.5193  -10.1985 C   0  0  0  0  0  0  0  0  0  0  0  0
    7.5344  -25.1132  -10.1565 C   0  0  0  0  0  0  0  0  0  0  0  0
    9.4474  -27.2000   -9.6470 C   0  0  0  0  0  0  0  0  0  0  0  0
    8.9316  -24.8407   -9.6004 C   0  0  0  0  0  0  0  0  0  0  0  0
   11.2265  -25.5761   -9.5571 C   0  0  0  0  0  0  0  0  0  0  0  0
    5.3790  -28.1298   -9.2064 C   0  0  0  0  0  0  0  0  0  0  0  0
    5.2860  -30.0737   -7.5504 C   0  0  0  0  0  0  0  0  0  0  0  0
    5.7215  -28.6325   -7.8116 C   0  0  0  0  0  0  0  0  0  0  0  0
    7.0945  -26.4720   -9.8438 N   0  0  0  0  0  0  0  0  0  0  0  0
    9.8846  -25.8596  -10.0641 N   0  0  0  0  0  0  0  0  0  0  0  0
    2.9980  -29.4298   -7.4802 O   0  5  0  0  0  0  0  0  0  0  0  0
    5.0104  -25.7923   -9.0757 O   0  0  0  0  0  0  0  0  0  0  0  0
    3.5437  -31.5615   -8.0921 O   0  0  0  0  0  0  0  0  0  0  0  0
   14.2781  -27.6662  -11.1445 S   0  0  0  0  0  0  0  0  0  0  0  0
   11.8762  -25.2631  -12.3682 H   0  0  0  0  0  0  0  0  0  0  0  0
   13.8822  -26.6610  -13.3361 H   0  0  0  0  0  0  0  0  0  0  0  0
   13.2932  -27.5193   -8.9158 H   0  0  0  0  0  0  0  0  0  0  0  0
    8.0819  -27.5725  -11.2941 H   0  0  0  0  0  0  0  0  0  0  0  0
    7.7423  -28.4994   -9.8345 H   0  0  0  0  0  0  0  0  0  0  0  0
    6.8284  -24.3763   -9.7597 H   0  0  0  0  0  0  0  0  0  0  0  0
    7.5286  -25.0148  -11.2491 H   0  0  0  0  0  0  0  0  0  0  0  0
    9.4378  -27.2879   -8.5524 H   0  0  0  0  0  0  0  0  0  0  0  0
   10.1481  -27.9524  -10.0288 H   0  0  0  0  0  0  0  0  0  0  0  0
    9.2510  -23.8505   -9.9475 H   0  0  0  0  0  0  0  0  0  0  0  0
    8.8928  -24.8062   -8.5034 H   0  0  0  0  0  0  0  0  0  0  0  0
   11.2803  -25.9378   -8.5244 H   0  0  0  0  0  0  0  0  0  0  0  0
   11.3505  -24.4885   -9.5276 H   0  0  0  0  0  0  0  0  0  0  0  0
    4.2991  -28.1545   -9.3575 H   0  0  0  0  0  0  0  0  0  0  0  0
    5.8597  -28.7130   -9.9900 H   0  0  0  0  0  0  0  0  0  0  0  0
    5.5273  -30.3239   -6.5093 H   0  0  0  0  0  0  0  0  0  0  0  0
    5.8677  -30.7591   -8.1784 H   0  0  0  0  0  0  0  0  0  0  0  0
    6.8042  -28.5616   -7.6483 H   0  0  0  0  0  0  0  0  0  0  0  0
    5.2493  -27.9662   -7.0800 H   0  0  0  0  0  0  0  0  0  0  0  0
  1  2  2  0  0  0  0
  1  4  1  0  0  0  0
  2 20  1  0  0  0  0
  3  4  2  0  0  0  0
  3 20  1  0  0  0  0
  4 11  1  0  0  0  0
  5 12  1  0  0  0  0
  5 15  1  0  0  0  0
  5 18  2  0  0  0  0
  6 13  1  0  0  0  0
  6 17  1  0  0  0  0
  6 19  2  0  0  0  0
  7  9  1  0  0  0  0
  7 15  1  0  0  0  0
  8 10  1  0  0  0  0
  8 15  1  0  0  0  0
  9 16  1  0  0  0  0
 10 16  1  0  0  0  0
 11 16  1  0  0  0  0
 12 14  1  0  0  0  0
 13 14  1  0  0  0  0
  1 21  1  0  0  0  0
  2 22  1  0  0  0  0
  3 23  1  0  0  0  0
  7 24  1  0  0  0  0
  7 25  1  0  0  0  0
  8 26  1  0  0  0  0
  8 27  1  0  0  0  0
  9 28  1  0  0  0  0
  9 29  1  0  0  0  0
 10 30  1  0  0  0  0
 10 31  1  0  0  0  0
 11 32  1  0  0  0  0
 11 33  1  0  0  0  0
 12 34  1  0  0  0  0
 12 35  1  0  0  0  0
 13 36  1  0  0  0  0
 13 37  1  0  0  0  0
 14 38  1  0  0  0  0
 14 39  1  0  0  0  0
M  CHG  1  17  -1
M  END
> <Hybrid2>
-2.999211549758911

> <Hybrid2>
-2.999212

$$$$
C37828011
  -OEChem-02152218503D

 39 40  0     0  0  0  0  0  0999 V2000
    5.1744  -30.7548   -8.9333 C   0  0  0  0  0  0  0  0  0  0  0  0
    4.9260  -31.5156   -7.8121 C   0  0  0  0  0  0  0  0  0  0  0  0
    5.3212  -29.1525   -7.2561 C   0  0  0  0  0  0  0  0  0  0  0  0
    5.4035  -29.3859   -8.6113 C   0  0  0  0  0  0  0  0  0  0  0  0
   10.5473  -25.9500  -10.8774 C   0  0  0  0  0  0  0  0  0  0  0  0
   14.7807  -27.4892  -10.9786 C   0  0  0  0  0  0  0  0  0  0  0  0
    9.4452  -27.8782   -9.6430 C   0  0  0  0  0  0  0  0  0  0  0  0
    8.3683  -25.6659   -9.7444 C   0  0  0  0  0  0  0  0  0  0  0  0
    8.0844  -28.5234   -9.9116 C   0  0  0  0  0  0  0  0  0  0  0  0
    7.0305  -26.3525  -10.0170 C   0  0  0  0  0  0  0  0  0  0  0  0
    5.6987  -28.3240   -9.6309 C   0  0  0  0  0  0  0  0  0  0  0  0
   11.7300  -26.8475  -11.1412 C   0  0  0  0  0  0  0  0  0  0  0  0
   14.0515  -26.9320  -12.2058 C   0  0  0  0  0  0  0  0  0  0  0  0
   12.7969  -26.1041  -11.9315 C   0  0  0  0  0  0  0  0  0  0  0  0
    9.4905  -26.5067  -10.1585 N   0  0  0  0  0  0  0  0  0  0  0  0
    6.9926  -27.6845   -9.3960 N   0  0  0  0  0  0  0  0  0  0  0  0
   14.7055  -26.8018   -9.9233 O   0  5  0  0  0  0  0  0  0  0  0  0
   10.5619  -24.7916  -11.3012 O   0  0  0  0  0  0  0  0  0  0  0  0
   15.3889  -28.5787  -11.1849 O   0  0  0  0  0  0  0  0  0  0  0  0
    4.9694  -30.5801   -6.3785 S   0  0  0  0  0  0  0  0  0  0  0  0
    5.1897  -31.1650   -9.9353 H   0  0  0  0  0  0  0  0  0  0  0  0
    4.7204  -32.5757   -7.7663 H   0  0  0  0  0  0  0  0  0  0  0  0
    5.4490  -28.2135   -6.7355 H   0  0  0  0  0  0  0  0  0  0  0  0
    9.6357  -27.8206   -8.5641 H   0  0  0  0  0  0  0  0  0  0  0  0
   10.2299  -28.5009  -10.0769 H   0  0  0  0  0  0  0  0  0  0  0  0
    8.3988  -24.6989  -10.2571 H   0  0  0  0  0  0  0  0  0  0  0  0
    8.4895  -25.4702   -8.6718 H   0  0  0  0  0  0  0  0  0  0  0  0
    7.9685  -28.7018  -10.9890 H   0  0  0  0  0  0  0  0  0  0  0  0
    8.0652  -29.5010   -9.4149 H   0  0  0  0  0  0  0  0  0  0  0  0
    6.2330  -25.7267   -9.5985 H   0  0  0  0  0  0  0  0  0  0  0  0
    6.8617  -26.4168  -11.1003 H   0  0  0  0  0  0  0  0  0  0  0  0
    5.7115  -28.7505  -10.6399 H   0  0  0  0  0  0  0  0  0  0  0  0
    4.9317  -27.5426   -9.6178 H   0  0  0  0  0  0  0  0  0  0  0  0
   12.1228  -27.1387  -10.1662 H   0  0  0  0  0  0  0  0  0  0  0  0
   11.3708  -27.7357  -11.6580 H   0  0  0  0  0  0  0  0  0  0  0  0
   14.7767  -26.2965  -12.7302 H   0  0  0  0  0  0  0  0  0  0  0  0
   13.8122  -27.7583  -12.8858 H   0  0  0  0  0  0  0  0  0  0  0  0
   12.3822  -25.7728  -12.8919 H   0  0  0  0  0  0  0  0  0  0  0  0
   13.0670  -25.1976  -11.3769 H   0  0  0  0  0  0  0  0  0  0  0  0
  1  2  2  0  0  0  0
  1  4  1  0  0  0  0
  2 20  1  0  0  0  0
  3  4  2  0  0  0  0
  3 20  1  0  0  0  0
  4 11  1  0  0  0  0
  5 12  1  0  0  0  0
  5 15  1  0  0  0  0
  5 18  2  0  0  0  0
  6 13  1  0  0  0  0
  6 17  1  0  0  0  0
  6 19  2  0  0  0  0
  7  9  1  0  0  0  0
  7 15  1  0  0  0  0
  8 10  1  0  0  0  0
  8 15  1  0  0  0  0
  9 16  1  0  0  0  0
 10 16  1  0  0  0  0
 11 16  1  0  0  0  0
 12 14  1  0  0  0  0
 13 14  1  0  0  0  0
  1 21  1  0  0  0  0
  2 22  1  0  0  0  0
  3 23  1  0  0  0  0
  7 24  1  0  0  0  0
  7 25  1  0  0  0  0
  8 26  1  0  0  0  0
  8 27  1  0  0  0  0
  9 28  1  0  0  0  0
  9 29  1  0  0  0  0
 10 30  1  0  0  0  0
 10 31  1  0  0  0  0
 11 32  1  0  0  0  0
 11 33  1  0  0  0  0
 12 34  1  0  0  0  0
 12 35  1  0  0  0  0
 13 36  1  0  0  0  0
 13 37  1  0  0  0  0
 14 38  1  0  0  0  0
 14 39  1  0  0  0  0
M  CHG  1  17  -1
M  END
> <Hybrid2>
-2.999211549758911

> <Hybrid2>
-2.974633

$$$$
C37835469
  -OEChem-02152218503D

 43 43  0     1  0  0  0  0  0999 V2000
   15.6699  -27.7641  -10.5543 C   0  0  0  0  0  0  0  0  0  0  0  0
   14.7162  -27.5086  -11.2374 C   0  0  0  0  0  0  0  0  0  0  0  0
    8.3244  -26.7207  -10.3120 C   0  0  0  0  0  0  0  0  0  0  0  0
    5.8715  -26.6805   -8.6482 C   0  0  0  0  0  0  0  0  0  0  0  0
   10.3224  -25.4469  -11.2293 C   0  0  0  0  0  0  0  0  0  0  0  0
   10.6350  -27.3491   -9.6970 C   0  0  0  0  0  0  0  0  0  0  0  0
   11.4769  -25.9776  -12.0812 C   0  0  0  0  0  0  0  0  0  0  0  0
   11.7785  -27.8464  -10.5807 C   0  0  0  0  0  0  0  0  0  0  0  0
    4.5000  -29.2535   -8.0054 C   0  0  0  0  0  0  0  0  0  0  0  0
    6.4612  -30.5581   -8.8173 C   0  0  0  0  0  0  0  0  0  0  0  0
    5.7255  -28.2039  -10.7103 C   0  0  0  0  0  0  0  0  0  0  0  0
   13.5551  -27.1988  -12.0753 C   0  0  0  0  0  0  0  0  0  0  0  0
    7.8966  -27.8934   -9.4660 C   0  0  0  0  0  0  0  0  0  0  0  0
    5.9998  -29.1741   -8.3358 C   0  0  0  0  0  0  0  0  0  0  0  0
    6.3615  -28.0070   -9.3229 C   0  0  1  0  0  0  0  0  0  0  0  0
    9.6970  -26.5244  -10.4570 N   0  0  0  0  0  0  0  0  0  0  0  0
   12.4408  -26.7217  -11.2573 N   0  0  0  0  0  0  0  0  0  0  0  0
    6.3454  -26.4339   -7.5025 O   0  5  0  0  0  0  0  0  0  0  0  0
    7.4642  -25.9999  -10.8241 O   0  0  0  0  0  0  0  0  0  0  0  0
    5.0522  -25.9936   -9.3260 O   0  0  0  0  0  0  0  0  0  0  0  0
   16.5155  -27.9911   -9.9480 H   0  0  0  0  0  0  0  0  0  0  0  0
   10.6880  -24.7065  -10.5070 H   0  0  0  0  0  0  0  0  0  0  0  0
    9.6027  -24.9402  -11.8754 H   0  0  0  0  0  0  0  0  0  0  0  0
   10.1209  -28.2024   -9.2428 H   0  0  0  0  0  0  0  0  0  0  0  0
   11.0220  -26.7285   -8.8792 H   0  0  0  0  0  0  0  0  0  0  0  0
   11.0791  -26.6082  -12.8875 H   0  0  0  0  0  0  0  0  0  0  0  0
   11.9763  -25.1222  -12.5519 H   0  0  0  0  0  0  0  0  0  0  0  0
   12.5003  -28.3713   -9.9433 H   0  0  0  0  0  0  0  0  0  0  0  0
   11.3942  -28.5740  -11.3080 H   0  0  0  0  0  0  0  0  0  0  0  0
    3.8948  -29.4336   -8.8985 H   0  0  0  0  0  0  0  0  0  0  0  0
    4.1569  -28.3076   -7.5707 H   0  0  0  0  0  0  0  0  0  0  0  0
    4.2843  -30.0418   -7.2776 H   0  0  0  0  0  0  0  0  0  0  0  0
    5.9968  -30.8345   -9.7687 H   0  0  0  0  0  0  0  0  0  0  0  0
    7.5474  -30.6035   -8.9355 H   0  0  0  0  0  0  0  0  0  0  0  0
    6.1906  -31.3274   -8.0849 H   0  0  0  0  0  0  0  0  0  0  0  0
    6.0624  -29.1287  -11.1894 H   0  0  0  0  0  0  0  0  0  0  0  0
    5.9600  -27.3724  -11.3826 H   0  0  0  0  0  0  0  0  0  0  0  0
    4.6331  -28.2685  -10.6483 H   0  0  0  0  0  0  0  0  0  0  0  0
   13.2375  -28.0877  -12.6289 H   0  0  0  0  0  0  0  0  0  0  0  0
   13.8165  -26.4306  -12.8100 H   0  0  0  0  0  0  0  0  0  0  0  0
    8.3134  -28.7802   -9.9499 H   0  0  0  0  0  0  0  0  0  0  0  0
    8.3834  -27.7752   -8.4942 H   0  0  0  0  0  0  0  0  0  0  0  0
    6.5180  -28.9929   -7.3837 H   0  0  0  0  0  0  0  0  0  0  0  0
  1  2  3  0  0  0  0
  2 12  1  0  0  0  0
  3 13  1  0  0  0  0
  3 16  1  0  0  0  0
  3 19  2  0  0  0  0
  4 15  1  0  0  0  0
  4 18  1  0  0  0  0
  4 20  2  0  0  0  0
  5  7  1  0  0  0  0
  5 16  1  0  0  0  0
  6  8  1  0  0  0  0
  6 16  1  0  0  0  0
  7 17  1  0  0  0  0
  8 17  1  0  0  0  0
  9 14  1  0  0  0  0
 10 14  1  0  0  0  0
 11 15  1  0  0  0  0
 12 17  1  0  0  0  0
 13 15  1  0  0  0  0
 14 15  1  0  0  0  0
  1 21  1  0  0  0  0
  5 22  1  0  0  0  0
  5 23  1  0  0  0  0
  6 24  1  0  0  0  0
  6 25  1  0  0  0  0
  7 26  1  0  0  0  0
  7 27  1  0  0  0  0
  8 28  1  0  0  0  0
  8 29  1  0  0  0  0
  9 30  1  0  0  0  0
  9 31  1  0  0  0  0
  9 32  1  0  0  0  0
 10 33  1  0  0  0  0
 10 34  1  0  0  0  0
 10 35  1  0  0  0  0
 11 36  1  0  0  0  0
 11 37  1  0  0  0  0
 11 38  1  0  0  0  0
 12 39  1  0  0  0  0
 12 40  1  0  0  0  0
 13 41  1  0  0  0  0
 13 42  1  0  0  0  0
 14 43  1  0  0  0  0
M  CHG  1  18  -1
M  END
> <Hybrid2>
-3.6246798038482666

> <Hybrid2>
-3.624680

$$$$
C37835469
  -OEChem-02152218503D

 43 43  0     1  0  0  0  0  0999 V2000
   16.2100  -27.9805   -9.6200 C   0  0  0  0  0  0  0  0  0  0  0  0
   15.3332  -27.6903  -10.3871 C   0  0  0  0  0  0  0  0  0  0  0  0
    8.9185  -26.6560  -10.0490 C   0  0  0  0  0  0  0  0  0  0  0  0
    6.3272  -26.5178   -8.6163 C   0  0  0  0  0  0  0  0  0  0  0  0
   11.0393  -25.4619  -10.7786 C   0  0  0  0  0  0  0  0  0  0  0  0
   11.1375  -27.3709   -9.2260 C   0  0  0  0  0  0  0  0  0  0  0  0
   12.2456  -26.0386  -11.5219 C   0  0  0  0  0  0  0  0  0  0  0  0
   12.3370  -27.9138  -10.0020 C   0  0  0  0  0  0  0  0  0  0  0  0
    4.8051  -29.0349   -8.1042 C   0  0  0  0  0  0  0  0  0  0  0  0
    6.7808  -30.4156   -8.7348 C   0  0  0  0  0  0  0  0  0  0  0  0
    6.3120  -28.0397  -10.6847 C   0  0  0  0  0  0  0  0  0  0  0  0
   14.2663  -27.3384  -11.3273 C   0  0  0  0  0  0  0  0  0  0  0  0
    8.3706  -27.8094   -9.2469 C   0  0  0  0  0  0  0  0  0  0  0  0
    6.3307  -29.0138   -8.2961 C   0  0  0  0  0  0  0  0  0  0  0  0
    6.8256  -27.8639   -9.2448 C   0  0  1  0  0  0  0  0  0  0  0  0
   10.3051  -26.5128  -10.0677 N   0  0  0  0  0  0  0  0  0  0  0  0
   13.1010  -26.8170  -10.6141 N   0  0  0  0  0  0  0  0  0  0  0  0
    6.7036  -26.2867   -7.4318 O   0  5  0  0  0  0  0  0  0  0  0  0
    8.1370  -25.9041  -10.6369 O   0  0  0  0  0  0  0  0  0  0  0  0
    5.6002  -25.8018   -9.3654 O   0  0  0  0  0  0  0  0  0  0  0  0
   16.9873  -28.2381   -8.9392 H   0  0  0  0  0  0  0  0  0  0  0  0
   11.3655  -24.7343  -10.0251 H   0  0  0  0  0  0  0  0  0  0  0  0
   10.4017  -24.9297  -11.4871 H   0  0  0  0  0  0  0  0  0  0  0  0
   10.5517  -28.2028   -8.8216 H   0  0  0  0  0  0  0  0  0  0  0  0
   11.4716  -26.7636   -8.3757 H   0  0  0  0  0  0  0  0  0  0  0  0
   11.8993  -26.6555  -12.3618 H   0  0  0  0  0  0  0  0  0  0  0  0
   12.8184  -25.2041  -11.9441 H   0  0  0  0  0  0  0  0  0  0  0  0
   12.9769  -28.4644   -9.3019 H   0  0  0  0  0  0  0  0  0  0  0  0
   11.9932  -28.6279  -10.7621 H   0  0  0  0  0  0  0  0  0  0  0  0
    4.2775  -29.1939   -9.0491 H   0  0  0  0  0  0  0  0  0  0  0  0
    4.4603  -28.0755   -7.7017 H   0  0  0  0  0  0  0  0  0  0  0  0
    4.4937  -29.8126   -7.4000 H   0  0  0  0  0  0  0  0  0  0  0  0
    6.3950  -30.6764   -9.7249 H   0  0  0  0  0  0  0  0  0  0  0  0
    7.8707  -30.5029   -8.7533 H   0  0  0  0  0  0  0  0  0  0  0  0
    6.4151  -31.1722   -8.0310 H   0  0  0  0  0  0  0  0  0  0  0  0
    6.6555  -28.9779  -11.1320 H   0  0  0  0  0  0  0  0  0  0  0  0
    6.6386  -27.2195  -11.3319 H   0  0  0  0  0  0  0  0  0  0  0  0
    5.2168  -28.0622  -10.7228 H   0  0  0  0  0  0  0  0  0  0  0  0
   13.9668  -28.2159  -11.9086 H   0  0  0  0  0  0  0  0  0  0  0  0
   14.6230  -26.5826  -12.0343 H   0  0  0  0  0  0  0  0  0  0  0  0
    8.7955  -28.7127   -9.6915 H   0  0  0  0  0  0  0  0  0  0  0  0
    8.7708  -27.7075   -8.2345 H   0  0  0  0  0  0  0  0  0  0  0  0
    6.7663  -28.8502   -7.3004 H   0  0  0  0  0  0  0  0  0  0  0  0
  1  2  3  0  0  0  0
  2 12  1  0  0  0  0
  3 13  1  0  0  0  0
  3 16  1  0  0  0  0
  3 19  2  0  0  0  0
  4 15  1  0  0  0  0
  4 18  1  0  0  0  0
  4 20  2  0  0  0  0
  5  7  1  0  0  0  0
  5 16  1  0  0  0  0
  6  8  1  0  0  0  0
  6 16  1  0  0  0  0
  7 17  1  0  0  0  0
  8 17  1  0  0  0  0
  9 14  1  0  0  0  0
 10 14  1  0  0  0  0
 11 15  1  0  0  0  0
 12 17  1  0  0  0  0
 13 15  1  0  0  0  0
 14 15  1  0  0  0  0
  1 21  1  0  0  0  0
  5 22  1  0  0  0  0
  5 23  1  0  0  0  0
  6 24  1  0  0  0  0
  6 25  1  0  0  0  0
  7 26  1  0  0  0  0
  7 27  1  0  0  0  0
  8 28  1  0  0  0  0
  8 29  1  0  0  0  0
  9 30  1  0  0  0  0
  9 31  1  0  0  0  0
  9 32  1  0  0  0  0
 10 33  1  0  0  0  0
 10 34  1  0  0  0  0
 10 35  1  0  0  0  0
 11 36  1  0  0  0  0
 11 37  1  0  0  0  0
 11 38  1  0  0  0  0
 12 39  1  0  0  0  0
 12 40  1  0  0  0  0
 13 41  1  0  0  0  0
 13 42  1  0  0  0  0
 14 43  1  0  0  0  0
M  CHG  1  18  -1
M  END
> <Hybrid2>
-3.6246798038482666

> <Hybrid2>
-3.233436

$$$$
C37836328
  -OEChem-02152218503D

 31 31  0     1  0  0  0  0  0999 V2000
    8.1056  -23.0683   -9.4391 C   0  0  0  0  0  0  0  0  0  0  0  0
   12.8564  -26.5760  -11.0573 C   0  0  0  0  0  0  0  0  0  0  0  0
   13.0403  -27.0435  -12.4741 C   0  0  0  0  0  0  0  0  0  0  0  0
   11.7648  -26.3585  -12.0683 C   0  0  0  0  0  0  0  0  0  0  0  0
    9.7037  -27.1305  -13.2937 C   0  0  0  0  0  0  0  0  0  0  0  0
    8.2023  -24.5422   -9.7926 C   0  0  0  0  0  0  0  0  0  0  0  0
    9.4762  -27.4524   -9.7424 C   0  0  0  0  0  0  0  0  0  0  0  0
   10.4669  -27.1478  -11.9774 C   0  0  2  0  0  0  0  0  0  0  0  0
    8.1747  -28.2134   -9.7697 C   0  0  0  0  0  0  0  0  0  0  0  0
    9.6117  -26.5567  -10.9181 N   0  0  2  0  0  0  0  0  0  0  0  0
    9.0301  -22.6338   -8.6965 O   0  5  0  0  0  0  0  0  0  0  0  0
    7.1091  -22.4646   -9.9265 O   0  0  0  0  0  0  0  0  0  0  0  0
   10.8110  -24.6171   -9.6883 O   0  0  0  0  0  0  0  0  0  0  0  0
    9.6997  -24.1599  -11.8984 O   0  0  0  0  0  0  0  0  0  0  0  0
    8.0774  -29.0223   -8.6915 F   0  0  0  0  0  0  0  0  0  0  0  0
    7.1144  -27.3777   -9.7511 F   0  0  0  0  0  0  0  0  0  0  0  0
    8.0793  -28.9875  -10.8716 F   0  0  0  0  0  0  0  0  0  0  0  0
    9.7381  -24.8673  -10.6323 S   0  0  0  0  0  0  0  0  0  0  0  0
   12.7130  -27.3297  -10.2929 H   0  0  0  0  0  0  0  0  0  0  0  0
   13.4233  -25.7115  -10.7342 H   0  0  0  0  0  0  0  0  0  0  0  0
   13.7304  -26.4925  -13.1013 H   0  0  0  0  0  0  0  0  0  0  0  0
   13.0203  -28.1105  -12.6587 H   0  0  0  0  0  0  0  0  0  0  0  0
   11.6022  -25.3477  -12.4224 H   0  0  0  0  0  0  0  0  0  0  0  0
    9.4731  -26.1028  -13.5953 H   0  0  0  0  0  0  0  0  0  0  0  0
    8.7594  -27.6774  -13.2041 H   0  0  0  0  0  0  0  0  0  0  0  0
   10.2872  -27.5871  -14.1010 H   0  0  0  0  0  0  0  0  0  0  0  0
    8.1767  -25.1690   -8.8970 H   0  0  0  0  0  0  0  0  0  0  0  0
    7.3904  -24.8460  -10.4594 H   0  0  0  0  0  0  0  0  0  0  0  0
   10.3264  -28.1409   -9.7505 H   0  0  0  0  0  0  0  0  0  0  0  0
    9.5419  -26.8318   -8.8440 H   0  0  0  0  0  0  0  0  0  0  0  0
   10.6861  -28.1837  -11.6964 H   0  0  0  0  0  0  0  0  0  0  0  0
  1  6  1  0  0  0  0
  1 11  1  0  0  0  0
  1 12  2  0  0  0  0
  2  3  1  0  0  0  0
  2  4  1  0  0  0  0
  3  4  1  0  0  0  0
  4  8  1  0  0  0  0
  5  8  1  0  0  0  0
  6 18  1  0  0  0  0
  7  9  1  0  0  0  0
  7 10  1  0  0  0  0
  8 10  1  0  0  0  0
  9 15  1  0  0  0  0
  9 16  1  0  0  0  0
  9 17  1  0  0  0  0
 10 18  1  0  0  0  0
 13 18  2  0  0  0  0
 14 18  2  0  0  0  0
  2 19  1  0  0  0  0
  2 20  1  0  0  0  0
  3 21  1  0  0  0  0
  3 22  1  0  0  0  0
  4 23  1  0  0  0  0
  5 24  1  0  0  0  0
  5 25  1  0  0  0  0
  5 26  1  0  0  0  0
  6 27  1  0  0  0  0
  6 28  1  0  0  0  0
  7 29  1  0  0  0  0
  7 30  1  0  0  0  0
  8 31  1  0  0  0  0
M  CHG  1  11  -1
M  END
> <Hybrid2>
-4.084846019744873

> <Hybrid2>
-4.084846

$$$$
C37836328
  -OEChem-02152218503D

 31 31  0     1  0  0  0  0  0999 V2000
    6.6922  -24.9574  -10.8289 C   0  0  0  0  0  0  0  0  0  0  0  0
   12.4600  -26.7697  -10.3094 C   0  0  0  0  0  0  0  0  0  0  0  0
   12.8507  -27.2303  -11.6860 C   0  0  0  0  0  0  0  0  0  0  0  0
   11.5448  -26.5155  -11.4750 C   0  0  0  0  0  0  0  0  0  0  0  0
    9.6811  -27.2233  -13.0150 C   0  0  0  0  0  0  0  0  0  0  0  0
    7.7172  -24.6253   -9.7586 C   0  0  0  0  0  0  0  0  0  0  0  0
    8.8959  -27.5682   -9.5463 C   0  0  0  0  0  0  0  0  0  0  0  0
   10.2296  -27.2714  -11.5964 C   0  0  2  0  0  0  0  0  0  0  0  0
    8.1021  -28.7643  -10.0079 C   0  0  0  0  0  0  0  0  0  0  0  0
    9.2347  -26.6667  -10.6758 N   0  0  2  0  0  0  0  0  0  0  0  0
    6.8331  -24.3330  -11.9176 O   0  5  0  0  0  0  0  0  0  0  0  0
    5.8239  -25.8108  -10.4931 O   0  0  0  0  0  0  0  0  0  0  0  0
   10.2752  -24.7693   -9.2512 O   0  0  0  0  0  0  0  0  0  0  0  0
    9.5329  -24.2652  -11.6014 O   0  0  0  0  0  0  0  0  0  0  0  0
    7.8092  -29.5692   -8.9626 F   0  0  0  0  0  0  0  0  0  0  0  0
    6.9356  -28.3922  -10.5770 F   0  0  0  0  0  0  0  0  0  0  0  0
    8.7926  -29.4970  -10.9073 F   0  0  0  0  0  0  0  0  0  0  0  0
    9.3565  -24.9836  -10.3534 S   0  0  0  0  0  0  0  0  0  0  0  0
   12.1809  -27.5256   -9.5858 H   0  0  0  0  0  0  0  0  0  0  0  0
   12.9908  -25.9231   -9.8916 H   0  0  0  0  0  0  0  0  0  0  0  0
   13.6432  -26.6924  -12.1916 H   0  0  0  0  0  0  0  0  0  0  0  0
   12.8335  -28.2949  -11.8843 H   0  0  0  0  0  0  0  0  0  0  0  0
   11.4641  -25.4979  -11.8378 H   0  0  0  0  0  0  0  0  0  0  0  0
    9.5256  -26.1876  -13.3363 H   0  0  0  0  0  0  0  0  0  0  0  0
    8.7213  -27.7461  -13.0799 H   0  0  0  0  0  0  0  0  0  0  0  0
   10.3718  -27.6885  -13.7273 H   0  0  0  0  0  0  0  0  0  0  0  0
    7.6867  -23.5650   -9.4933 H   0  0  0  0  0  0  0  0  0  0  0  0
    7.5563  -25.2200   -8.8549 H   0  0  0  0  0  0  0  0  0  0  0  0
    9.8345  -27.8837   -9.0811 H   0  0  0  0  0  0  0  0  0  0  0  0
    8.3265  -26.9852   -8.8166 H   0  0  0  0  0  0  0  0  0  0  0  0
   10.3768  -28.3149  -11.2973 H   0  0  0  0  0  0  0  0  0  0  0  0
  1  6  1  0  0  0  0
  1 11  1  0  0  0  0
  1 12  2  0  0  0  0
  2  3  1  0  0  0  0
  2  4  1  0  0  0  0
  3  4  1  0  0  0  0
  4  8  1  0  0  0  0
  5  8  1  0  0  0  0
  6 18  1  0  0  0  0
  7  9  1  0  0  0  0
  7 10  1  0  0  0  0
  8 10  1  0  0  0  0
  9 15  1  0  0  0  0
  9 16  1  0  0  0  0
  9 17  1  0  0  0  0
 10 18  1  0  0  0  0
 13 18  2  0  0  0  0
 14 18  2  0  0  0  0
  2 19  1  0  0  0  0
  2 20  1  0  0  0  0
  3 21  1  0  0  0  0
  3 22  1  0  0  0  0
  4 23  1  0  0  0  0
  5 24  1  0  0  0  0
  5 25  1  0  0  0  0
  5 26  1  0  0  0  0
  6 27  1  0  0  0  0
  6 28  1  0  0  0  0
  7 29  1  0  0  0  0
  7 30  1  0  0  0  0
  8 31  1  0  0  0  0
M  CHG  1  11  -1
M  END
> <Hybrid2>
-4.084846019744873

> <Hybrid2>
-3.320697

$$$$
C38021081
  -OEChem-02152218503D

 31 31  0     1  0  0  0  0  0999 V2000
    7.6696  -28.8266   -9.0665 C   0  0  0  0  0  0  0  0  0  0  0  0
    8.9538  -28.3767   -9.4890 C   0  0  0  0  0  0  0  0  0  0  0  0
    6.7455  -27.8052   -9.0426 C   0  0  0  0  0  0  0  0  0  0  0  0
    8.9623  -27.0285   -9.7721 C   0  0  0  0  0  0  0  0  0  0  0  0
   10.8400  -26.6887  -13.6127 C   0  0  0  0  0  0  0  0  0  0  0  0
    5.3170  -27.8648   -8.6647 C   0  0  0  0  0  0  0  0  0  0  0  0
   14.6463  -28.4040  -10.1764 C   0  0  0  0  0  0  0  0  0  0  0  0
   10.6521  -27.6300  -12.4347 C   0  0  0  0  0  0  0  0  0  0  0  0
   13.6553  -27.5042  -10.9009 C   0  0  0  0  0  0  0  0  0  0  0  0
   12.2074  -27.8075  -10.5347 C   0  0  0  0  0  0  0  0  0  0  0  0
   11.2463  -26.9398  -11.2618 N   0  0  2  0  0  0  0  0  0  0  0  0
   12.0396  -26.3955  -13.8799 O   0  5  0  0  0  0  0  0  0  0  0  0
    9.7740  -26.3258  -14.1858 O   0  0  0  0  0  0  0  0  0  0  0  0
    9.5858  -24.9436  -11.1981 O   0  0  0  0  0  0  0  0  0  0  0  0
   10.9398  -25.4561   -9.1516 O   0  0  0  0  0  0  0  0  0  0  0  0
    7.4267  -26.3111   -9.5282 S   0  0  0  0  0  0  0  0  0  0  0  0
   10.2223  -25.9144  -10.3270 S   0  0  0  0  0  0  0  0  0  0  0  0
    7.4394  -29.8490   -8.7948 H   0  0  0  0  0  0  0  0  0  0  0  0
    9.8260  -29.0110   -9.5802 H   0  0  0  0  0  0  0  0  0  0  0  0
    5.1859  -27.6775   -7.5874 H   0  0  0  0  0  0  0  0  0  0  0  0
    4.7156  -27.1208   -9.2123 H   0  0  0  0  0  0  0  0  0  0  0  0
    4.8722  -28.8473   -8.8931 H   0  0  0  0  0  0  0  0  0  0  0  0
   14.5513  -28.2980   -9.0910 H   0  0  0  0  0  0  0  0  0  0  0  0
   14.4595  -29.4521  -10.4316 H   0  0  0  0  0  0  0  0  0  0  0  0
   15.6777  -28.1692  -10.4570 H   0  0  0  0  0  0  0  0  0  0  0  0
   11.1578  -28.5843  -12.6115 H   0  0  0  0  0  0  0  0  0  0  0  0
    9.5903  -27.8308  -12.2616 H   0  0  0  0  0  0  0  0  0  0  0  0
   13.7833  -27.6405  -11.9811 H   0  0  0  0  0  0  0  0  0  0  0  0
   13.8889  -26.4567  -10.6761 H   0  0  0  0  0  0  0  0  0  0  0  0
   11.9643  -28.8425  -10.7952 H   0  0  0  0  0  0  0  0  0  0  0  0
   12.0328  -27.6760   -9.4622 H   0  0  0  0  0  0  0  0  0  0  0  0
  1  2  1  0  0  0  0
  1  3  2  0  0  0  0
  2  4  2  0  0  0  0
  3  6  1  0  0  0  0
  3 16  1  0  0  0  0
  4 16  1  0  0  0  0
  4 17  1  0  0  0  0
  5  8  1  0  0  0  0
  5 12  1  0  0  0  0
  5 13  2  0  0  0  0
  7  9  1  0  0  0  0
  8 11  1  0  0  0  0
  9 10  1  0  0  0  0
 10 11  1  0  0  0  0
 11 17  1  0  0  0  0
 14 17  2  0  0  0  0
 15 17  2  0  0  0  0
  1 18  1  0  0  0  0
  2 19  1  0  0  0  0
  6 20  1  0  0  0  0
  6 21  1  0  0  0  0
  6 22  1  0  0  0  0
  7 23  1  0  0  0  0
  7 24  1  0  0  0  0
  7 25  1  0  0  0  0
  8 26  1  0  0  0  0
  8 27  1  0  0  0  0
  9 28  1  0  0  0  0
  9 29  1  0  0  0  0
 10 30  1  0  0  0  0
 10 31  1  0  0  0  0
M  CHG  1  12  -1
M  END
> <Hybrid2>
-3.886672019958496

> <Hybrid2>
-3.886672

$$$$
C38021081
  -OEChem-02152218503D

 31 31  0     1  0  0  0  0  0999 V2000
    8.0149  -26.8594   -9.1575 C   0  0  0  0  0  0  0  0  0  0  0  0
    9.3332  -26.8494   -9.6980 C   0  0  0  0  0  0  0  0  0  0  0  0
    7.3517  -25.6745   -9.3890 C   0  0  0  0  0  0  0  0  0  0  0  0
    9.6273  -25.6571  -10.3223 C   0  0  0  0  0  0  0  0  0  0  0  0
   11.2455  -26.7466  -14.1414 C   0  0  0  0  0  0  0  0  0  0  0  0
    5.9788  -25.2949   -8.9913 C   0  0  0  0  0  0  0  0  0  0  0  0
   14.8039  -28.4058  -10.4235 C   0  0  0  0  0  0  0  0  0  0  0  0
   10.9355  -27.2905  -12.7569 C   0  0  0  0  0  0  0  0  0  0  0  0
   13.9931  -27.5059  -11.3452 C   0  0  0  0  0  0  0  0  0  0  0  0
   12.5451  -27.3535  -10.8951 C   0  0  0  0  0  0  0  0  0  0  0  0
   11.7557  -26.4915  -11.8113 N   0  0  2  0  0  0  0  0  0  0  0  0
   12.4575  -26.8246  -14.4902 O   0  5  0  0  0  0  0  0  0  0  0  0
   10.2509  -26.2948  -14.7763 O   0  0  0  0  0  0  0  0  0  0  0  0
   10.6020  -24.2060  -12.2492 O   0  0  0  0  0  0  0  0  0  0  0  0
   11.9506  -24.4986  -10.1565 O   0  0  0  0  0  0  0  0  0  0  0  0
    8.3173  -24.5564  -10.2550 S   0  0  0  0  0  0  0  0  0  0  0  0
   11.0633  -25.0512  -11.1633 S   0  0  0  0  0  0  0  0  0  0  0  0
    7.5788  -27.6959   -8.6263 H   0  0  0  0  0  0  0  0  0  0  0  0
   10.0291  -27.6757   -9.6315 H   0  0  0  0  0  0  0  0  0  0  0  0
    5.9732  -24.8185   -7.9984 H   0  0  0  0  0  0  0  0  0  0  0  0
    5.5238  -24.5900   -9.7064 H   0  0  0  0  0  0  0  0  0  0  0  0
    5.3065  -26.1678   -8.9508 H   0  0  0  0  0  0  0  0  0  0  0  0
   14.8156  -28.0124   -9.4020 H   0  0  0  0  0  0  0  0  0  0  0  0
   14.3654  -29.4085  -10.3948 H   0  0  0  0  0  0  0  0  0  0  0  0
   15.8381  -28.5018  -10.7680 H   0  0  0  0  0  0  0  0  0  0  0  0
   11.1965  -28.3509  -12.6853 H   0  0  0  0  0  0  0  0  0  0  0  0
    9.8716  -27.1822  -12.5246 H   0  0  0  0  0  0  0  0  0  0  0  0
   14.0069  -27.9344  -12.3541 H   0  0  0  0  0  0  0  0  0  0  0  0
   14.4746  -26.5226  -11.4036 H   0  0  0  0  0  0  0  0  0  0  0  0
   12.0544  -28.3316  -10.8743 H   0  0  0  0  0  0  0  0  0  0  0  0
   12.4842  -26.9203   -9.8918 H   0  0  0  0  0  0  0  0  0  0  0  0
  1  2  1  0  0  0  0
  1  3  2  0  0  0  0
  2  4  2  0  0  0  0
  3  6  1  0  0  0  0
  3 16  1  0  0  0  0
  4 16  1  0  0  0  0
  4 17  1  0  0  0  0
  5  8  1  0  0  0  0
  5 12  1  0  0  0  0
  5 13  2  0  0  0  0
  7  9  1  0  0  0  0
  8 11  1  0  0  0  0
  9 10  1  0  0  0  0
 10 11  1  0  0  0  0
 11 17  1  0  0  0  0
 14 17  2  0  0  0  0
 15 17  2  0  0  0  0
  1 18  1  0  0  0  0
  2 19  1  0  0  0  0
  6 20  1  0  0  0  0
  6 21  1  0  0  0  0
  6 22  1  0  0  0  0
  7 23  1  0  0  0  0
  7 24  1  0  0  0  0
  7 25  1  0  0  0  0
  8 26  1  0  0  0  0
  8 27  1  0  0  0  0
  9 28  1  0  0  0  0
  9 29  1  0  0  0  0
 10 30  1  0  0  0  0
 10 31  1  0  0  0  0
M  CHG  1  12  -1
M  END
> <Hybrid2>
-3.886672019958496

> <Hybrid2>
-3.846653

$$$$
C38036880
  -OEChem-02152218503D

 45 46  0     1  0  0  0  0  0999 V2000
   10.4537  -26.4205   -9.2160 C   0  0  0  0  0  0  0  0  0  0  0  0
   10.5138  -27.1926  -11.3894 C   0  0  0  0  0  0  0  0  0  0  0  0
    7.6137  -25.6061  -10.1109 C   0  0  0  0  0  0  0  0  0  0  0  0
   11.9136  -26.5453   -9.5536 C   0  0  0  0  0  0  0  0  0  0  0  0
    6.2686  -30.3880   -8.4793 C   0  0  0  0  0  0  0  0  0  0  0  0
    5.9259  -28.9899   -7.9742 C   0  0  0  0  0  0  0  0  0  0  0  0
    7.7523  -30.5170   -8.8098 C   0  0  0  0  0  0  0  0  0  0  0  0
    6.3770  -27.9102   -8.9552 C   0  0  0  0  0  0  0  0  0  0  0  0
    8.2065  -29.4398   -9.7921 C   0  0  0  0  0  0  0  0  0  0  0  0
    7.8713  -28.0313   -9.2833 C   0  0  0  0  0  0  0  0  0  0  0  0
   11.9446  -26.8004  -11.0670 C   0  0  0  0  0  0  0  0  0  0  0  0
   12.1614  -25.7105  -13.3110 C   0  0  0  0  0  0  0  0  0  0  0  0
   14.3227  -27.5544  -11.1236 C   0  0  0  0  0  0  0  0  0  0  0  0
   12.2866  -25.5195  -11.8349 C   0  0  0  0  0  0  0  0  0  0  0  0
   12.9112  -27.9238  -11.4343 C   0  0  0  0  0  0  0  0  0  0  0  0
    8.2863  -26.9753  -10.3060 C   0  0  2  0  0  0  0  0  0  0  0  0
    9.7310  -26.8480  -10.3074 N   0  0  0  0  0  0  0  0  0  0  0  0
    7.8215  -25.0289   -9.0079 O   0  5  0  0  0  0  0  0  0  0  0  0
   10.0318  -26.0456   -8.1309 O   0  0  0  0  0  0  0  0  0  0  0  0
   10.1473  -27.6898  -12.4459 O   0  0  0  0  0  0  0  0  0  0  0  0
    6.9236  -25.2170  -11.0981 O   0  0  0  0  0  0  0  0  0  0  0  0
   12.4032  -25.6036   -9.2821 H   0  0  0  0  0  0  0  0  0  0  0  0
   12.3625  -27.3596   -8.9770 H   0  0  0  0  0  0  0  0  0  0  0  0
    5.9935  -31.1312   -7.7224 H   0  0  0  0  0  0  0  0  0  0  0  0
    5.6751  -30.6075   -9.3754 H   0  0  0  0  0  0  0  0  0  0  0  0
    4.8448  -28.9123   -7.8116 H   0  0  0  0  0  0  0  0  0  0  0  0
    6.4076  -28.8241   -7.0027 H   0  0  0  0  0  0  0  0  0  0  0  0
    8.3402  -30.4403   -7.8869 H   0  0  0  0  0  0  0  0  0  0  0  0
    7.9501  -31.5087   -9.2324 H   0  0  0  0  0  0  0  0  0  0  0  0
    5.7848  -27.9903   -9.8760 H   0  0  0  0  0  0  0  0  0  0  0  0
    6.1663  -26.9224   -8.5280 H   0  0  0  0  0  0  0  0  0  0  0  0
    9.2870  -29.5315   -9.9554 H   0  0  0  0  0  0  0  0  0  0  0  0
    7.7234  -29.6110  -10.7627 H   0  0  0  0  0  0  0  0  0  0  0  0
    8.4434  -27.8503   -8.3640 H   0  0  0  0  0  0  0  0  0  0  0  0
   12.8330  -26.5137  -13.6364 H   0  0  0  0  0  0  0  0  0  0  0  0
   12.4390  -24.7974  -13.8481 H   0  0  0  0  0  0  0  0  0  0  0  0
   11.1386  -25.9919  -13.5830 H   0  0  0  0  0  0  0  0  0  0  0  0
   14.5948  -26.6512  -11.6824 H   0  0  0  0  0  0  0  0  0  0  0  0
   15.0111  -28.3545  -11.4157 H   0  0  0  0  0  0  0  0  0  0  0  0
   14.4470  -27.3437  -10.0561 H   0  0  0  0  0  0  0  0  0  0  0  0
   11.6169  -24.7186  -11.5107 H   0  0  0  0  0  0  0  0  0  0  0  0
   13.3084  -25.2177  -11.5897 H   0  0  0  0  0  0  0  0  0  0  0  0
   12.6335  -28.8228  -10.8810 H   0  0  0  0  0  0  0  0  0  0  0  0
   12.8113  -28.1406  -12.4994 H   0  0  0  0  0  0  0  0  0  0  0  0
    8.0081  -27.3327  -11.3051 H   0  0  0  0  0  0  0  0  0  0  0  0
  1  4  1  0  0  0  0
  1 17  1  0  0  0  0
  1 19  2  0  0  0  0
  2 11  1  0  0  0  0
  2 17  1  0  0  0  0
  2 20  2  0  0  0  0
  3 16  1  0  0  0  0
  3 18  1  0  0  0  0
  3 21  2  0  0  0  0
  4 11  1  0  0  0  0
  5  6  1  0  0  0  0
  5  7  1  0  0  0  0
  6  8  1  0  0  0  0
  7  9  1  0  0  0  0
  8 10  1  0  0  0  0
  9 10  1  0  0  0  0
 10 16  1  0  0  0  0
 11 14  1  0  0  0  0
 11 15  1  0  0  0  0
 12 14  1  0  0  0  0
 13 15  1  0  0  0  0
 16 17  1  0  0  0  0
  4 22  1  0  0  0  0
  4 23  1  0  0  0  0
  5 24  1  0  0  0  0
  5 25  1  0  0  0  0
  6 26  1  0  0  0  0
  6 27  1  0  0  0  0
  7 28  1  0  0  0  0
  7 29  1  0  0  0  0
  8 30  1  0  0  0  0
  8 31  1  0  0  0  0
  9 32  1  0  0  0  0
  9 33  1  0  0  0  0
 10 34  1  0  0  0  0
 12 35  1  0  0  0  0
 12 36  1  0  0  0  0
 12 37  1  0  0  0  0
 13 38  1  0  0  0  0
 13 39  1  0  0  0  0
 13 40  1  0  0  0  0
 14 41  1  0  0  0  0
 14 42  1  0  0  0  0
 15 43  1  0  0  0  0
 15 44  1  0  0  0  0
 16 45  1  0  0  0  0
M  CHG  1  18  -1
M  END
> <Hybrid2>
-5.070295810699463

> <Hybrid2>
-5.070296

$$$$
C38036880
  -OEChem-02152218503D

 45 46  0     1  0  0  0  0  0999 V2000
   10.2690  -26.9602   -9.1363 C   0  0  0  0  0  0  0  0  0  0  0  0
    9.6695  -26.6539  -11.3431 C   0  0  0  0  0  0  0  0  0  0  0  0
    7.4969  -25.6666   -8.7225 C   0  0  0  0  0  0  0  0  0  0  0  0
   11.5588  -26.9995   -9.9080 C   0  0  0  0  0  0  0  0  0  0  0  0
    5.7232  -30.5797   -8.9522 C   0  0  0  0  0  0  0  0  0  0  0  0
    5.7725  -29.5510   -7.8268 C   0  0  0  0  0  0  0  0  0  0  0  0
    7.0366  -30.6273   -9.7267 C   0  0  0  0  0  0  0  0  0  0  0  0
    6.1683  -28.1696   -8.3433 C   0  0  0  0  0  0  0  0  0  0  0  0
    7.4347  -29.2477  -10.2462 C   0  0  0  0  0  0  0  0  0  0  0  0
    7.4939  -28.2118   -9.1155 C   0  0  0  0  0  0  0  0  0  0  0  0
   11.1828  -26.5349  -11.3220 C   0  0  0  0  0  0  0  0  0  0  0  0
   11.0576  -24.5530  -12.8474 C   0  0  0  0  0  0  0  0  0  0  0  0
   13.2998  -27.3132  -12.3895 C   0  0  0  0  0  0  0  0  0  0  0  0
   11.5620  -25.0664  -11.5386 C   0  0  0  0  0  0  0  0  0  0  0  0
   11.8118  -27.4185  -12.3966 C   0  0  0  0  0  0  0  0  0  0  0  0
    7.8411  -26.8303   -9.6671 C   0  0  2  0  0  0  0  0  0  0  0  0
    9.2424  -26.7989  -10.0396 N   0  0  0  0  0  0  0  0  0  0  0  0
    8.0626  -25.6711   -7.5942 O   0  5  0  0  0  0  0  0  0  0  0  0
   10.1926  -27.1003   -7.9236 O   0  0  0  0  0  0  0  0  0  0  0  0
    8.9781  -26.5906  -12.3509 O   0  0  0  0  0  0  0  0  0  0  0  0
    6.6758  -24.8302   -9.2006 O   0  0  0  0  0  0  0  0  0  0  0  0
   12.2630  -26.3161   -9.4210 H   0  0  0  0  0  0  0  0  0  0  0  0
   11.9744  -28.0115   -9.8907 H   0  0  0  0  0  0  0  0  0  0  0  0
    5.5039  -31.5699   -8.5371 H   0  0  0  0  0  0  0  0  0  0  0  0
    4.9043  -30.3305   -9.6382 H   0  0  0  0  0  0  0  0  0  0  0  0
    4.7940  -29.4950   -7.3365 H   0  0  0  0  0  0  0  0  0  0  0  0
    6.4928  -29.8760   -7.0659 H   0  0  0  0  0  0  0  0  0  0  0  0
    7.8304  -31.0151   -9.0764 H   0  0  0  0  0  0  0  0  0  0  0  0
    6.9432  -31.3250  -10.5667 H   0  0  0  0  0  0  0  0  0  0  0  0
    5.3704  -27.7855   -8.9919 H   0  0  0  0  0  0  0  0  0  0  0  0
    6.2499  -27.4767   -7.4972 H   0  0  0  0  0  0  0  0  0  0  0  0
    8.4099  -29.3158  -10.7430 H   0  0  0  0  0  0  0  0  0  0  0  0
    6.7123  -28.9279  -11.0082 H   0  0  0  0  0  0  0  0  0  0  0  0
    8.2908  -28.5045   -8.4195 H   0  0  0  0  0  0  0  0  0  0  0  0
   11.4738  -25.1549  -13.6638 H   0  0  0  0  0  0  0  0  0  0  0  0
   11.3626  -23.5128  -13.0029 H   0  0  0  0  0  0  0  0  0  0  0  0
    9.9657  -24.6200  -12.8985 H   0  0  0  0  0  0  0  0  0  0  0  0
   13.5926  -26.2716  -12.5662 H   0  0  0  0  0  0  0  0  0  0  0  0
   13.7405  -27.9286  -13.1810 H   0  0  0  0  0  0  0  0  0  0  0  0
   13.7101  -27.6220  -11.4222 H   0  0  0  0  0  0  0  0  0  0  0  0
   11.1469  -24.4660  -10.7247 H   0  0  0  0  0  0  0  0  0  0  0  0
   12.6503  -24.9689  -11.5015 H   0  0  0  0  0  0  0  0  0  0  0  0
   11.5131  -28.4537  -12.2212 H   0  0  0  0  0  0  0  0  0  0  0  0
   11.4242  -27.1176  -13.3717 H   0  0  0  0  0  0  0  0  0  0  0  0
    7.2733  -26.6744  -10.5926 H   0  0  0  0  0  0  0  0  0  0  0  0
  1  4  1  0  0  0  0
  1 17  1  0  0  0  0
  1 19  2  0  0  0  0
  2 11  1  0  0  0  0
  2 17  1  0  0  0  0
  2 20  2  0  0  0  0
  3 16  1  0  0  0  0
  3 18  1  0  0  0  0
  3 21  2  0  0  0  0
  4 11  1  0  0  0  0
  5  6  1  0  0  0  0
  5  7  1  0  0  0  0
  6  8  1  0  0  0  0
  7  9  1  0  0  0  0
  8 10  1  0  0  0  0
  9 10  1  0  0  0  0
 10 16  1  0  0  0  0
 11 14  1  0  0  0  0
 11 15  1  0  0  0  0
 12 14  1  0  0  0  0
 13 15  1  0  0  0  0
 16 17  1  0  0  0  0
  4 22  1  0  0  0  0
  4 23  1  0  0  0  0
  5 24  1  0  0  0  0
  5 25  1  0  0  0  0
  6 26  1  0  0  0  0
  6 27  1  0  0  0  0
  7 28  1  0  0  0  0
  7 29  1  0  0  0  0
  8 30  1  0  0  0  0
  8 31  1  0  0  0  0
  9 32  1  0  0  0  0
  9 33  1  0  0  0  0
 10 34  1  0  0  0  0
 12 35  1  0  0  0  0
 12 36  1  0  0  0  0
 12 37  1  0  0  0  0
 13 38  1  0  0  0  0
 13 39  1  0  0  0  0
 13 40  1  0  0  0  0
 14 41  1  0  0  0  0
 14 42  1  0  0  0  0
 15 43  1  0  0  0  0
 15 44  1  0  0  0  0
 16 45  1  0  0  0  0
M  CHG  1  18  -1
M  END
> <Hybrid2>
-5.070295810699463

> <Hybrid2>
-4.594934

$$$$
C40225275
  -OEChem-02152218503D

 38 40  0     1  0  0  0  0  0999 V2000
   12.5608  -26.7602  -11.1839 C   0  0  0  0  0  0  0  0  0  0  0  0
   10.8388  -25.9433  -10.2990 C   0  0  0  0  0  0  0  0  0  0  0  0
    7.4967  -24.9483  -11.1537 C   0  0  0  0  0  0  0  0  0  0  0  0
    7.7684  -29.1224   -9.6252 C   0  0  0  0  0  0  0  0  0  0  0  0
    6.7540  -28.2261   -8.9151 C   0  0  0  0  0  0  0  0  0  0  0  0
    9.0351  -28.2855   -9.7886 C   0  0  0  0  0  0  0  0  0  0  0  0
    7.4563  -26.8906   -8.6814 C   0  0  0  0  0  0  0  0  0  0  0  0
   15.1365  -27.0955  -11.5413 C   0  0  0  0  0  0  0  0  0  0  0  0
   13.7400  -27.6835  -11.5136 C   0  0  1  0  0  0  0  0  0  0  0  0
   14.7598  -28.0509  -10.4483 C   0  0  2  0  0  0  0  0  0  0  0  0
    8.5581  -26.8273   -9.7481 C   0  0  0  0  0  0  0  0  0  0  0  0
   14.6508  -27.5701   -9.0413 C   0  0  0  0  0  0  0  0  0  0  0  0
    9.6850  -25.8770   -9.3382 C   0  0  0  0  0  0  0  0  0  0  0  0
    7.9934  -26.3866  -11.1085 C   0  0  0  0  0  0  0  0  0  0  0  0
   12.3227  -25.6410  -11.8269 N   0  0  0  0  0  0  0  0  0  0  0  0
   11.1899  -25.1035  -11.2446 N   0  0  0  0  0  0  0  0  0  0  0  0
    6.5532  -24.6364  -10.3768 O   0  5  0  0  0  0  0  0  0  0  0  0
    8.1163  -24.2302  -11.9912 O   0  0  0  0  0  0  0  0  0  0  0  0
   11.6612  -27.0231  -10.1969 O   0  0  0  0  0  0  0  0  0  0  0  0
    7.9684  -30.0366   -9.0570 H   0  0  0  0  0  0  0  0  0  0  0  0
    7.3786  -29.4255  -10.6037 H   0  0  0  0  0  0  0  0  0  0  0  0
    5.8688  -28.0899   -9.5469 H   0  0  0  0  0  0  0  0  0  0  0  0
    6.4143  -28.6662   -7.9719 H   0  0  0  0  0  0  0  0  0  0  0  0
    9.7107  -28.4942   -8.9491 H   0  0  0  0  0  0  0  0  0  0  0  0
    9.5715  -28.5356  -10.7100 H   0  0  0  0  0  0  0  0  0  0  0  0
    6.7582  -26.0488   -8.7359 H   0  0  0  0  0  0  0  0  0  0  0  0
    7.8937  -26.8900   -7.6747 H   0  0  0  0  0  0  0  0  0  0  0  0
   15.8174  -27.4499  -12.3063 H   0  0  0  0  0  0  0  0  0  0  0  0
   15.2614  -26.0480  -11.2931 H   0  0  0  0  0  0  0  0  0  0  0  0
   13.5203  -28.4456  -12.2562 H   0  0  0  0  0  0  0  0  0  0  0  0
   15.1765  -29.0512  -10.4918 H   0  0  0  0  0  0  0  0  0  0  0  0
   14.2279  -26.5541   -8.9915 H   0  0  0  0  0  0  0  0  0  0  0  0
   15.6344  -27.5393   -8.5460 H   0  0  0  0  0  0  0  0  0  0  0  0
   14.0014  -28.2245   -8.4383 H   0  0  0  0  0  0  0  0  0  0  0  0
   10.0216  -26.1299   -8.3288 H   0  0  0  0  0  0  0  0  0  0  0  0
    9.2962  -24.8558   -9.2880 H   0  0  0  0  0  0  0  0  0  0  0  0
    7.1689  -27.0527  -11.3619 H   0  0  0  0  0  0  0  0  0  0  0  0
    8.7771  -26.5131  -11.8550 H   0  0  0  0  0  0  0  0  0  0  0  0
  1  9  1  0  0  0  0
  1 15  2  0  0  0  0
  1 19  1  0  0  0  0
  2 13  1  0  0  0  0
  2 16  2  0  0  0  0
  2 19  1  0  0  0  0
  3 14  1  0  0  0  0
  3 17  1  0  0  0  0
  3 18  2  0  0  0  0
  4  5  1  0  0  0  0
  4  6  1  0  0  0  0
  5  7  1  0  0  0  0
  6 11  1  0  0  0  0
  7 11  1  0  0  0  0
  8  9  1  0  0  0  0
  8 10  1  0  0  0  0
  9 10  1  0  0  0  0
 10 12  1  0  0  0  0
 11 13  1  0  0  0  0
 11 14  1  0  0  0  0
 15 16  1  0  0  0  0
  4 20  1  0  0  0  0
  4 21  1  0  0  0  0
  5 22  1  0  0  0  0
  5 23  1  0  0  0  0
  6 24  1  0  0  0  0
  6 25  1  0  0  0  0
  7 26  1  0  0  0  0
  7 27  1  0  0  0  0
  8 28  1  0  0  0  0
  8 29  1  0  0  0  0
  9 30  1  0  0  0  0
 10 31  1  0  0  0  0
 12 32  1  0  0  0  0
 12 33  1  0  0  0  0
 12 34  1  0  0  0  0
 13 35  1  0  0  0  0
 13 36  1  0  0  0  0
 14 37  1  0  0  0  0
 14 38  1  0  0  0  0
M  CHG  1  17  -1
M  END
> <Hybrid2>
-3.7460784912109375

> <Hybrid2>
-3.746078

$$$$
C40225275
  -OEChem-02152218503D

 38 40  0     1  0  0  0  0  0999 V2000
   12.4697  -26.9314  -11.0102 C   0  0  0  0  0  0  0  0  0  0  0  0
   10.7477  -26.1145  -10.1253 C   0  0  0  0  0  0  0  0  0  0  0  0
    7.4056  -25.1195  -10.9801 C   0  0  0  0  0  0  0  0  0  0  0  0
    7.6772  -29.2936   -9.4515 C   0  0  0  0  0  0  0  0  0  0  0  0
    6.6629  -28.3973   -8.7414 C   0  0  0  0  0  0  0  0  0  0  0  0
    8.9440  -28.4568   -9.6150 C   0  0  0  0  0  0  0  0  0  0  0  0
    7.3652  -27.0618   -8.5077 C   0  0  0  0  0  0  0  0  0  0  0  0
   15.0454  -27.2667  -11.3676 C   0  0  0  0  0  0  0  0  0  0  0  0
   13.6489  -27.8547  -11.3399 C   0  0  1  0  0  0  0  0  0  0  0  0
   14.6687  -28.2221  -10.2746 C   0  0  2  0  0  0  0  0  0  0  0  0
    8.4669  -26.9985   -9.5745 C   0  0  0  0  0  0  0  0  0  0  0  0
   14.5597  -27.7413   -8.8676 C   0  0  0  0  0  0  0  0  0  0  0  0
    9.5939  -26.0482   -9.1646 C   0  0  0  0  0  0  0  0  0  0  0  0
    7.9023  -26.5578  -10.9348 C   0  0  0  0  0  0  0  0  0  0  0  0
   12.2316  -25.8122  -11.6532 N   0  0  0  0  0  0  0  0  0  0  0  0
   11.0988  -25.2747  -11.0709 N   0  0  0  0  0  0  0  0  0  0  0  0
    6.4621  -24.8076  -10.2031 O   0  5  0  0  0  0  0  0  0  0  0  0
    8.0251  -24.4015  -11.8176 O   0  0  0  0  0  0  0  0  0  0  0  0
   11.5700  -27.1943  -10.0232 O   0  0  0  0  0  0  0  0  0  0  0  0
    7.8773  -30.2079   -8.8834 H   0  0  0  0  0  0  0  0  0  0  0  0
    7.2875  -29.5967  -10.4300 H   0  0  0  0  0  0  0  0  0  0  0  0
    5.7777  -28.2611   -9.3733 H   0  0  0  0  0  0  0  0  0  0  0  0
    6.3232  -28.8374   -7.7982 H   0  0  0  0  0  0  0  0  0  0  0  0
    9.6195  -28.6654   -8.7754 H   0  0  0  0  0  0  0  0  0  0  0  0
    9.4803  -28.7068  -10.5363 H   0  0  0  0  0  0  0  0  0  0  0  0
    6.6670  -26.2200   -8.5623 H   0  0  0  0  0  0  0  0  0  0  0  0
    7.8025  -27.0612   -7.5011 H   0  0  0  0  0  0  0  0  0  0  0  0
   15.7263  -27.6211  -12.1327 H   0  0  0  0  0  0  0  0  0  0  0  0
   15.1703  -26.2192  -11.1194 H   0  0  0  0  0  0  0  0  0  0  0  0
   13.4291  -28.6168  -12.0825 H   0  0  0  0  0  0  0  0  0  0  0  0
   15.0854  -29.2224  -10.3181 H   0  0  0  0  0  0  0  0  0  0  0  0
   14.1368  -26.7253   -8.8178 H   0  0  0  0  0  0  0  0  0  0  0  0
   15.5433  -27.7105   -8.3723 H   0  0  0  0  0  0  0  0  0  0  0  0
   13.9102  -28.3957   -8.2646 H   0  0  0  0  0  0  0  0  0  0  0  0
    9.9305  -26.3011   -8.1552 H   0  0  0  0  0  0  0  0  0  0  0  0
    9.2051  -25.0270   -9.1144 H   0  0  0  0  0  0  0  0  0  0  0  0
    7.0778  -27.2239  -11.1883 H   0  0  0  0  0  0  0  0  0  0  0  0
    8.6860  -26.6843  -11.6814 H   0  0  0  0  0  0  0  0  0  0  0  0
  1  9  1  0  0  0  0
  1 15  2  0  0  0  0
  1 19  1  0  0  0  0
  2 13  1  0  0  0  0
  2 16  2  0  0  0  0
  2 19  1  0  0  0  0
  3 14  1  0  0  0  0
  3 17  1  0  0  0  0
  3 18  2  0  0  0  0
  4  5  1  0  0  0  0
  4  6  1  0  0  0  0
  5  7  1  0  0  0  0
  6 11  1  0  0  0  0
  7 11  1  0  0  0  0
  8  9  1  0  0  0  0
  8 10  1  0  0  0  0
  9 10  1  0  0  0  0
 10 12  1  0  0  0  0
 11 13  1  0  0  0  0
 11 14  1  0  0  0  0
 15 16  1  0  0  0  0
  4 20  1  0  0  0  0
  4 21  1  0  0  0  0
  5 22  1  0  0  0  0
  5 23  1  0  0  0  0
  6 24  1  0  0  0  0
  6 25  1  0  0  0  0
  7 26  1  0  0  0  0
  7 27  1  0  0  0  0
  8 28  1  0  0  0  0
  8 29  1  0  0  0  0
  9 30  1  0  0  0  0
 10 31  1  0  0  0  0
 12 32  1  0  0  0  0
 12 33  1  0  0  0  0
 12 34  1  0  0  0  0
 13 35  1  0  0  0  0
 13 36  1  0  0  0  0
 14 37  1  0  0  0  0
 14 38  1  0  0  0  0
M  CHG  1  17  -1
M  END
> <Hybrid2>
-3.7460784912109375

> <Hybrid2>
-3.588376

$$$$
C41913634
  -OEChem-02152218503D

 44 44  0     1  0  0  0  0  0999 V2000
    6.9401  -27.4011   -8.9334 C   0  0  0  0  0  0  0  0  0  0  0  0
    8.4760  -29.2609   -9.6593 C   0  0  0  0  0  0  0  0  0  0  0  0
    8.1866  -25.7195  -10.7811 C   0  0  0  0  0  0  0  0  0  0  0  0
    6.5572  -28.0930   -7.6405 C   0  0  0  0  0  0  0  0  0  0  0  0
    7.3426  -30.2676   -9.6476 C   0  0  0  0  0  0  0  0  0  0  0  0
    5.8202  -29.4021   -7.8373 C   0  0  0  0  0  0  0  0  0  0  0  0
    6.7534  -30.5224   -8.2745 C   0  0  0  0  0  0  0  0  0  0  0  0
   12.8230  -27.1416  -11.6645 C   0  0  0  0  0  0  0  0  0  0  0  0
   10.8566  -27.3841   -8.4996 C   0  0  0  0  0  0  0  0  0  0  0  0
   10.5620  -27.6608  -13.7148 C   0  0  0  0  0  0  0  0  0  0  0  0
   11.7355  -26.1446  -12.0450 C   0  0  0  0  0  0  0  0  0  0  0  0
    9.9626  -26.3604   -9.1968 C   0  0  0  0  0  0  0  0  0  0  0  0
    9.7745  -27.6679  -11.3367 C   0  0  0  0  0  0  0  0  0  0  0  0
   10.4016  -26.7934  -12.4569 C   0  0  2  0  0  0  0  0  0  0  0  0
    8.9592  -26.9494  -10.2279 C   0  0  2  0  0  0  0  0  0  0  0  0
    8.0912  -27.9099   -9.5600 N   0  0  0  0  0  0  0  0  0  0  0  0
    7.3110  -25.9684  -11.6591 O   0  5  0  0  0  0  0  0  0  0  0  0
    6.2939  -26.4363   -9.3449 O   0  0  0  0  0  0  0  0  0  0  0  0
    9.6399  -29.6368   -9.8140 O   0  0  0  0  0  0  0  0  0  0  0  0
    8.5272  -24.6002  -10.2997 O   0  0  0  0  0  0  0  0  0  0  0  0
    7.4404  -28.1982   -7.0046 H   0  0  0  0  0  0  0  0  0  0  0  0
    5.8762  -27.4067   -7.1221 H   0  0  0  0  0  0  0  0  0  0  0  0
    6.5487  -29.8894  -10.3154 H   0  0  0  0  0  0  0  0  0  0  0  0
    7.6909  -31.1978  -10.1280 H   0  0  0  0  0  0  0  0  0  0  0  0
    5.3363  -29.7011   -6.9000 H   0  0  0  0  0  0  0  0  0  0  0  0
    5.0170  -29.2802   -8.5743 H   0  0  0  0  0  0  0  0  0  0  0  0
    6.2066  -31.4649   -8.2637 H   0  0  0  0  0  0  0  0  0  0  0  0
    7.5711  -30.6119   -7.5589 H   0  0  0  0  0  0  0  0  0  0  0  0
   13.0112  -27.8487  -12.4784 H   0  0  0  0  0  0  0  0  0  0  0  0
   12.5567  -27.7046  -10.7652 H   0  0  0  0  0  0  0  0  0  0  0  0
   13.7579  -26.6122  -11.4530 H   0  0  0  0  0  0  0  0  0  0  0  0
   11.4197  -27.9862   -9.2185 H   0  0  0  0  0  0  0  0  0  0  0  0
   11.5644  -26.9023   -7.8186 H   0  0  0  0  0  0  0  0  0  0  0  0
   10.2415  -28.0704   -7.9081 H   0  0  0  0  0  0  0  0  0  0  0  0
   11.2601  -28.4857  -13.5350 H   0  0  0  0  0  0  0  0  0  0  0  0
    9.6106  -28.1112  -14.0139 H   0  0  0  0  0  0  0  0  0  0  0  0
   10.9435  -27.0715  -14.5555 H   0  0  0  0  0  0  0  0  0  0  0  0
   11.5764  -25.4557  -11.2071 H   0  0  0  0  0  0  0  0  0  0  0  0
   12.1257  -25.5558  -12.8801 H   0  0  0  0  0  0  0  0  0  0  0  0
    9.4263  -25.7900   -8.4272 H   0  0  0  0  0  0  0  0  0  0  0  0
   10.6225  -25.6441   -9.7050 H   0  0  0  0  0  0  0  0  0  0  0  0
   10.5649  -28.2829  -10.8858 H   0  0  0  0  0  0  0  0  0  0  0  0
    9.1000  -28.3793  -11.8357 H   0  0  0  0  0  0  0  0  0  0  0  0
    9.6937  -25.9934  -12.7091 H   0  0  0  0  0  0  0  0  0  0  0  0
  1  4  1  0  0  0  0
  1 16  1  0  0  0  0
  1 18  2  0  0  0  0
  2  5  1  0  0  0  0
  2 16  1  0  0  0  0
  2 19  2  0  0  0  0
  3 15  1  0  0  0  0
  3 17  1  0  0  0  0
  3 20  2  0  0  0  0
  4  6  1  0  0  0  0
  5  7  1  0  0  0  0
  6  7  1  0  0  0  0
  8 11  1  0  0  0  0
  9 12  1  0  0  0  0
 10 14  1  0  0  0  0
 11 14  1  0  0  0  0
 12 15  1  0  0  0  0
 13 14  1  0  0  0  0
 13 15  1  0  0  0  0
 15 16  1  0  0  0  0
  4 21  1  0  0  0  0
  4 22  1  0  0  0  0
  5 23  1  0  0  0  0
  5 24  1  0  0  0  0
  6 25  1  0  0  0  0
  6 26  1  0  0  0  0
  7 27  1  0  0  0  0
  7 28  1  0  0  0  0
  8 29  1  0  0  0  0
  8 30  1  0  0  0  0
  8 31  1  0  0  0  0
  9 32  1  0  0  0  0
  9 33  1  0  0  0  0
  9 34  1  0  0  0  0
 10 35  1  0  0  0  0
 10 36  1  0  0  0  0
 10 37  1  0  0  0  0
 11 38  1  0  0  0  0
 11 39  1  0  0  0  0
 12 40  1  0  0  0  0
 12 41  1  0  0  0  0
 13 42  1  0  0  0  0
 13 43  1  0  0  0  0
 14 44  1  0  0  0  0
M  CHG  1  17  -1
M  END
> <Hybrid2>
-4.940057754516602

> <Hybrid2>
-4.940058

$$$$
C41913634
  -OEChem-02152218503D

 44 44  0     1  0  0  0  0  0999 V2000
    8.3490  -28.5970   -9.8068 C   0  0  0  0  0  0  0  0  0  0  0  0
    7.2266  -26.4449   -9.1335 C   0  0  0  0  0  0  0  0  0  0  0  0
    8.7330  -25.0838  -11.0400 C   0  0  0  0  0  0  0  0  0  0  0  0
    7.0417  -29.3558   -9.9168 C   0  0  0  0  0  0  0  0  0  0  0  0
    6.6206  -27.0890   -7.9022 C   0  0  0  0  0  0  0  0  0  0  0  0
    6.2923  -29.4850   -8.6063 C   0  0  0  0  0  0  0  0  0  0  0  0
    5.6151  -28.1820   -8.2052 C   0  0  0  0  0  0  0  0  0  0  0  0
   12.9246  -25.4910  -13.3838 C   0  0  0  0  0  0  0  0  0  0  0  0
   11.0373  -27.1915   -8.7264 C   0  0  0  0  0  0  0  0  0  0  0  0
   10.6943  -27.4868  -13.9376 C   0  0  0  0  0  0  0  0  0  0  0  0
   12.1356  -26.1966  -12.2878 C   0  0  0  0  0  0  0  0  0  0  0  0
   10.3546  -26.0270   -9.4414 C   0  0  0  0  0  0  0  0  0  0  0  0
    9.9203  -27.3073  -11.5618 C   0  0  0  0  0  0  0  0  0  0  0  0
   10.7024  -26.5856  -12.6935 C   0  0  2  0  0  0  0  0  0  0  0  0
    9.2571  -26.4298  -10.4662 C   0  0  2  0  0  0  0  0  0  0  0  0
    8.2221  -27.1970   -9.7863 N   0  0  0  0  0  0  0  0  0  0  0  0
    7.8258  -25.1747  -11.9165 O   0  5  0  0  0  0  0  0  0  0  0  0
    9.4244  -29.1976   -9.7895 O   0  0  0  0  0  0  0  0  0  0  0  0
    6.8897  -25.3077   -9.4698 O   0  0  0  0  0  0  0  0  0  0  0  0
    9.2807  -24.0426  -10.5746 O   0  0  0  0  0  0  0  0  0  0  0  0
    6.4295  -28.9198  -10.7110 H   0  0  0  0  0  0  0  0  0  0  0  0
    7.3080  -30.3682  -10.2446 H   0  0  0  0  0  0  0  0  0  0  0  0
    7.4452  -27.5144   -7.3036 H   0  0  0  0  0  0  0  0  0  0  0  0
    6.1923  -26.2977   -7.2636 H   0  0  0  0  0  0  0  0  0  0  0  0
    5.5236  -30.2620   -8.6923 H   0  0  0  0  0  0  0  0  0  0  0  0
    6.9720  -29.8099   -7.8090 H   0  0  0  0  0  0  0  0  0  0  0  0
    4.9784  -28.3643   -7.3398 H   0  0  0  0  0  0  0  0  0  0  0  0
    4.9716  -27.8439   -9.0178 H   0  0  0  0  0  0  0  0  0  0  0  0
   12.4009  -24.5951  -13.7313 H   0  0  0  0  0  0  0  0  0  0  0  0
   13.1011  -26.1485  -14.2400 H   0  0  0  0  0  0  0  0  0  0  0  0
   13.9035  -25.1841  -13.0009 H   0  0  0  0  0  0  0  0  0  0  0  0
   11.4752  -27.9007   -9.4347 H   0  0  0  0  0  0  0  0  0  0  0  0
   11.8241  -26.8430   -8.0508 H   0  0  0  0  0  0  0  0  0  0  0  0
   10.3028  -27.7389   -8.1263 H   0  0  0  0  0  0  0  0  0  0  0  0
   11.2224  -28.4267  -13.7436 H   0  0  0  0  0  0  0  0  0  0  0  0
    9.6744  -27.7522  -14.2325 H   0  0  0  0  0  0  0  0  0  0  0  0
   11.1810  -26.9940  -14.7861 H   0  0  0  0  0  0  0  0  0  0  0  0
   12.6907  -27.0859  -11.9670 H   0  0  0  0  0  0  0  0  0  0  0  0
   12.0982  -25.5120  -11.4355 H   0  0  0  0  0  0  0  0  0  0  0  0
    9.9370  -25.3532   -8.6820 H   0  0  0  0  0  0  0  0  0  0  0  0
   11.1388  -25.4574   -9.9585 H   0  0  0  0  0  0  0  0  0  0  0  0
   10.5792  -28.0546  -11.0996 H   0  0  0  0  0  0  0  0  0  0  0  0
    9.1226  -27.8847  -12.0519 H   0  0  0  0  0  0  0  0  0  0  0  0
   10.1598  -25.6693  -12.9595 H   0  0  0  0  0  0  0  0  0  0  0  0
  1  4  1  0  0  0  0
  1 16  1  0  0  0  0
  1 18  2  0  0  0  0
  2  5  1  0  0  0  0
  2 16  1  0  0  0  0
  2 19  2  0  0  0  0
  3 15  1  0  0  0  0
  3 17  1  0  0  0  0
  3 20  2  0  0  0  0
  4  6  1  0  0  0  0
  5  7  1  0  0  0  0
  6  7  1  0  0  0  0
  8 11  1  0  0  0  0
  9 12  1  0  0  0  0
 10 14  1  0  0  0  0
 11 14  1  0  0  0  0
 12 15  1  0  0  0  0
 13 14  1  0  0  0  0
 13 15  1  0  0  0  0
 15 16  1  0  0  0  0
  4 21  1  0  0  0  0
  4 22  1  0  0  0  0
  5 23  1  0  0  0  0
  5 24  1  0  0  0  0
  6 25  1  0  0  0  0
  6 26  1  0  0  0  0
  7 27  1  0  0  0  0
  7 28  1  0  0  0  0
  8 29  1  0  0  0  0
  8 30  1  0  0  0  0
  8 31  1  0  0  0  0
  9 32  1  0  0  0  0
  9 33  1  0  0  0  0
  9 34  1  0  0  0  0
 10 35  1  0  0  0  0
 10 36  1  0  0  0  0
 10 37  1  0  0  0  0
 11 38  1  0  0  0  0
 11 39  1  0  0  0  0
 12 40  1  0  0  0  0
 12 41  1  0  0  0  0
 13 42  1  0  0  0  0
 13 43  1  0  0  0  0
 14 44  1  0  0  0  0
M  CHG  1  17  -1
M  END
> <Hybrid2>
-4.940057754516602

> <Hybrid2>
-4.512313

$$$$
C42334441
  -OEChem-02152218503D

 36 36  0     0  0  0  0  0  0999 V2000
    9.1382  -25.6412  -11.6334 C   0  0  0  0  0  0  0  0  0  0  0  0
   11.0794  -26.6630  -12.6970 C   0  0  0  0  0  0  0  0  0  0  0  0
   11.1526  -25.9736  -10.2376 C   0  0  0  0  0  0  0  0  0  0  0  0
   12.3167  -27.5475  -12.5980 C   0  0  0  0  0  0  0  0  0  0  0  0
   12.3928  -26.8027   -9.9287 C   0  0  0  0  0  0  0  0  0  0  0  0
   10.3179  -26.5637  -11.3746 C   0  0  0  0  0  0  0  0  0  0  0  0
    6.2327  -27.7897   -8.6150 C   0  0  0  0  0  0  0  0  0  0  0  0
    6.3093  -30.2894   -8.5249 C   0  0  0  0  0  0  0  0  0  0  0  0
    8.0931  -28.9902   -9.7987 C   0  0  0  0  0  0  0  0  0  0  0  0
    8.9899  -27.7593   -9.8556 C   0  0  0  0  0  0  0  0  0  0  0  0
    7.1508  -29.0138   -8.5844 C   0  0  0  0  0  0  0  0  0  0  0  0
    9.3567  -24.4155  -11.4258 O   0  5  0  0  0  0  0  0  0  0  0  0
    8.0872  -26.2224  -12.0243 O   0  0  0  0  0  0  0  0  0  0  0  0
   14.4004  -28.0212  -11.0857 O   0  0  0  0  0  0  0  0  0  0  0  0
   13.8991  -25.6373  -11.7367 O   0  0  0  0  0  0  0  0  0  0  0  0
    9.7961  -27.8373  -11.0210 O   0  0  0  0  0  0  0  0  0  0  0  0
   13.4481  -26.9612  -11.3543 S   0  0  0  0  0  0  0  0  0  0  0  0
   11.3776  -25.6691  -13.0341 H   0  0  0  0  0  0  0  0  0  0  0  0
   10.4124  -27.0553  -13.4669 H   0  0  0  0  0  0  0  0  0  0  0  0
   10.5345  -25.8956   -9.3413 H   0  0  0  0  0  0  0  0  0  0  0  0
   11.4564  -24.9552  -10.4847 H   0  0  0  0  0  0  0  0  0  0  0  0
   12.0390  -28.5694  -12.3238 H   0  0  0  0  0  0  0  0  0  0  0  0
   12.8605  -27.5829  -13.5465 H   0  0  0  0  0  0  0  0  0  0  0  0
   12.9868  -26.3516   -9.1296 H   0  0  0  0  0  0  0  0  0  0  0  0
   12.1141  -27.8141   -9.6216 H   0  0  0  0  0  0  0  0  0  0  0  0
    5.6049  -27.7961   -9.5124 H   0  0  0  0  0  0  0  0  0  0  0  0
    6.8103  -26.8590   -8.6120 H   0  0  0  0  0  0  0  0  0  0  0  0
    5.5681  -27.7795   -7.7445 H   0  0  0  0  0  0  0  0  0  0  0  0
    5.6846  -30.3949   -9.4183 H   0  0  0  0  0  0  0  0  0  0  0  0
    5.6491  -30.2783   -7.6508 H   0  0  0  0  0  0  0  0  0  0  0  0
    6.9401  -31.1795   -8.4421 H   0  0  0  0  0  0  0  0  0  0  0  0
    7.5013  -29.0317  -10.7228 H   0  0  0  0  0  0  0  0  0  0  0  0
    8.7187  -29.8923   -9.8143 H   0  0  0  0  0  0  0  0  0  0  0  0
    8.3931  -26.8433   -9.9076 H   0  0  0  0  0  0  0  0  0  0  0  0
    9.6537  -27.7072   -8.9880 H   0  0  0  0  0  0  0  0  0  0  0  0
    7.7545  -28.9579   -7.6697 H   0  0  0  0  0  0  0  0  0  0  0  0
  1  6  1  0  0  0  0
  1 12  1  0  0  0  0
  1 13  2  0  0  0  0
  2  4  1  0  0  0  0
  2  6  1  0  0  0  0
  3  5  1  0  0  0  0
  3  6  1  0  0  0  0
  4 17  1  0  0  0  0
  5 17  1  0  0  0  0
  6 16  1  0  0  0  0
  7 11  1  0  0  0  0
  8 11  1  0  0  0  0
  9 10  1  0  0  0  0
  9 11  1  0  0  0  0
 10 16  1  0  0  0  0
 14 17  2  0  0  0  0
 15 17  2  0  0  0  0
  2 18  1  0  0  0  0
  2 19  1  0  0  0  0
  3 20  1  0  0  0  0
  3 21  1  0  0  0  0
  4 22  1  0  0  0  0
  4 23  1  0  0  0  0
  5 24  1  0  0  0  0
  5 25  1  0  0  0  0
  7 26  1  0  0  0  0
  7 27  1  0  0  0  0
  7 28  1  0  0  0  0
  8 29  1  0  0  0  0
  8 30  1  0  0  0  0
  8 31  1  0  0  0  0
  9 32  1  0  0  0  0
  9 33  1  0  0  0  0
 10 34  1  0  0  0  0
 10 35  1  0  0  0  0
 11 36  1  0  0  0  0
M  CHG  1  12  -1
M  END
> <Hybrid2>
-3.3315460681915283

> <Hybrid2>
-3.331546

$$$$
C42334441
  -OEChem-02152218503D

 36 36  0     0  0  0  0  0  0999 V2000
    9.8787  -26.9076  -12.4496 C   0  0  0  0  0  0  0  0  0  0  0  0
    9.9541  -25.5950  -10.3263 C   0  0  0  0  0  0  0  0  0  0  0  0
    9.2584  -28.0607  -10.2984 C   0  0  0  0  0  0  0  0  0  0  0  0
    8.5205  -25.0851  -10.3320 C   0  0  0  0  0  0  0  0  0  0  0  0
    7.7699  -27.7451  -10.2994 C   0  0  0  0  0  0  0  0  0  0  0  0
   10.1279  -26.9821  -10.9487 C   0  0  0  0  0  0  0  0  0  0  0  0
   15.7377  -28.2263  -10.7949 C   0  0  0  0  0  0  0  0  0  0  0  0
   14.6167  -26.5126   -9.3566 C   0  0  0  0  0  0  0  0  0  0  0  0
   13.7064  -27.0432  -11.6766 C   0  0  0  0  0  0  0  0  0  0  0  0
   12.3578  -26.3891  -11.4010 C   0  0  0  0  0  0  0  0  0  0  0  0
   14.3971  -27.5918  -10.4176 C   0  0  0  0  0  0  0  0  0  0  0  0
    9.9953  -28.0004  -13.0703 O   0  5  0  0  0  0  0  0  0  0  0  0
    9.5865  -25.7572  -12.8814 O   0  0  0  0  0  0  0  0  0  0  0  0
    7.8463  -26.3040   -8.1070 O   0  0  0  0  0  0  0  0  0  0  0  0
    6.0621  -25.8215   -9.8228 O   0  0  0  0  0  0  0  0  0  0  0  0
   11.5006  -27.3488  -10.8024 O   0  0  0  0  0  0  0  0  0  0  0  0
    7.4213  -26.2008   -9.4893 S   0  0  0  0  0  0  0  0  0  0  0  0
   10.5928  -24.8696  -10.8470 H   0  0  0  0  0  0  0  0  0  0  0  0
   10.3287  -25.6175   -9.2941 H   0  0  0  0  0  0  0  0  0  0  0  0
    9.5967  -28.2170   -9.2653 H   0  0  0  0  0  0  0  0  0  0  0  0
    9.4196  -29.0231  -10.8016 H   0  0  0  0  0  0  0  0  0  0  0  0
    8.4523  -24.1195   -9.8214 H   0  0  0  0  0  0  0  0  0  0  0  0
    8.1435  -24.9595  -11.3517 H   0  0  0  0  0  0  0  0  0  0  0  0
    7.3757  -27.6779  -11.3182 H   0  0  0  0  0  0  0  0  0  0  0  0
    7.2105  -28.5209   -9.7675 H   0  0  0  0  0  0  0  0  0  0  0  0
   16.4103  -27.4827  -11.2354 H   0  0  0  0  0  0  0  0  0  0  0  0
   15.6046  -29.0353  -11.5213 H   0  0  0  0  0  0  0  0  0  0  0  0
   16.2343  -28.6417   -9.9115 H   0  0  0  0  0  0  0  0  0  0  0  0
   15.2448  -25.7012   -9.7397 H   0  0  0  0  0  0  0  0  0  0  0  0
   15.1093  -26.9320   -8.4726 H   0  0  0  0  0  0  0  0  0  0  0  0
   13.6676  -26.0818   -9.0239 H   0  0  0  0  0  0  0  0  0  0  0  0
   13.5563  -27.8584  -12.3970 H   0  0  0  0  0  0  0  0  0  0  0  0
   14.3587  -26.3221  -12.1866 H   0  0  0  0  0  0  0  0  0  0  0  0
   12.4665  -25.5446  -10.7133 H   0  0  0  0  0  0  0  0  0  0  0  0
   11.8849  -26.0425  -12.3242 H   0  0  0  0  0  0  0  0  0  0  0  0
   13.7647  -28.3765   -9.9832 H   0  0  0  0  0  0  0  0  0  0  0  0
  1  6  1  0  0  0  0
  1 12  1  0  0  0  0
  1 13  2  0  0  0  0
  2  4  1  0  0  0  0
  2  6  1  0  0  0  0
  3  5  1  0  0  0  0
  3  6  1  0  0  0  0
  4 17  1  0  0  0  0
  5 17  1  0  0  0  0
  6 16  1  0  0  0  0
  7 11  1  0  0  0  0
  8 11  1  0  0  0  0
  9 10  1  0  0  0  0
  9 11  1  0  0  0  0
 10 16  1  0  0  0  0
 14 17  2  0  0  0  0
 15 17  2  0  0  0  0
  2 18  1  0  0  0  0
  2 19  1  0  0  0  0
  3 20  1  0  0  0  0
  3 21  1  0  0  0  0
  4 22  1  0  0  0  0
  4 23  1  0  0  0  0
  5 24  1  0  0  0  0
  5 25  1  0  0  0  0
  7 26  1  0  0  0  0
  7 27  1  0  0  0  0
  7 28  1  0  0  0  0
  8 29  1  0  0  0  0
  8 30  1  0  0  0  0
  8 31  1  0  0  0  0
  9 32  1  0  0  0  0
  9 33  1  0  0  0  0
 10 34  1  0  0  0  0
 10 35  1  0  0  0  0
 11 36  1  0  0  0  0
M  CHG  1  12  -1
M  END
> <Hybrid2>
-3.3315460681915283

> <Hybrid2>
-2.101887

$$$$
C42701872
  -OEChem-02152218503D

 32 32  0     1  0  0  0  0  0999 V2000
    9.1102  -26.9014  -11.0752 C   0  0  0  0  0  0  0  0  0  0  0  0
   10.3531  -27.1265  -11.6564 C   0  0  0  0  0  0  0  0  0  0  0  0
   10.2199  -26.2992   -9.0596 C   0  0  0  0  0  0  0  0  0  0  0  0
    9.0336  -26.4797   -9.7524 C   0  0  0  0  0  0  0  0  0  0  0  0
   11.4803  -26.9168  -10.8784 C   0  0  0  0  0  0  0  0  0  0  0  0
    7.7340  -26.2320   -9.1082 C   0  0  0  0  0  0  0  0  0  0  0  0
    5.6925  -30.0083   -9.3968 C   0  0  0  0  0  0  0  0  0  0  0  0
    8.0041  -30.7337   -9.6986 C   0  0  0  0  0  0  0  0  0  0  0  0
    5.8308  -27.0687   -7.7848 C   0  0  0  0  0  0  0  0  0  0  0  0
    7.6374  -28.6526   -8.3561 C   0  0  0  0  0  0  0  0  0  0  0  0
    7.1377  -29.4871   -9.5331 C   0  0  2  0  0  0  0  0  0  0  0  0
   12.8307  -27.1503  -11.4695 C   0  0  0  0  0  0  0  0  0  0  0  0
   11.4456  -26.5076   -9.5903 N   0  0  0  0  0  0  0  0  0  0  0  0
    7.1015  -27.2755   -8.4474 N   0  0  0  0  0  0  0  0  0  0  0  0
    5.4857  -30.7189   -8.3704 O   0  5  0  0  0  0  0  0  0  0  0  0
    7.2956  -25.0851   -9.1901 O   0  0  0  0  0  0  0  0  0  0  0  0
    4.8881  -29.6724  -10.3100 O   0  0  0  0  0  0  0  0  0  0  0  0
   12.7936  -27.5631  -12.7706 F   0  0  0  0  0  0  0  0  0  0  0  0
   13.6256  -26.0401  -11.4698 F   0  0  0  0  0  0  0  0  0  0  0  0
   13.5370  -28.1073  -10.8009 F   0  0  0  0  0  0  0  0  0  0  0  0
    8.2083  -27.0570  -11.6610 H   0  0  0  0  0  0  0  0  0  0  0  0
   10.4275  -27.4546  -12.6876 H   0  0  0  0  0  0  0  0  0  0  0  0
   10.2244  -25.9718   -8.0241 H   0  0  0  0  0  0  0  0  0  0  0  0
    7.9739  -31.3638   -8.8024 H   0  0  0  0  0  0  0  0  0  0  0  0
    7.6590  -31.3353  -10.5463 H   0  0  0  0  0  0  0  0  0  0  0  0
    9.0516  -30.4713   -9.8840 H   0  0  0  0  0  0  0  0  0  0  0  0
    5.0115  -27.2687   -8.4911 H   0  0  0  0  0  0  0  0  0  0  0  0
    5.7496  -27.7518   -6.9264 H   0  0  0  0  0  0  0  0  0  0  0  0
    5.7658  -26.0285   -7.4331 H   0  0  0  0  0  0  0  0  0  0  0  0
    7.2956  -29.0813   -7.4075 H   0  0  0  0  0  0  0  0  0  0  0  0
    8.7306  -28.5993   -8.3229 H   0  0  0  0  0  0  0  0  0  0  0  0
    7.1979  -28.8878  -10.4512 H   0  0  0  0  0  0  0  0  0  0  0  0
  1  2  2  0  0  0  0
  1  4  1  0  0  0  0
  2  5  1  0  0  0  0
  3  4  2  0  0  0  0
  3 13  1  0  0  0  0
  4  6  1  0  0  0  0
  5 12  1  0  0  0  0
  5 13  2  0  0  0  0
  6 14  1  0  0  0  0
  6 16  2  0  0  0  0
  7 11  1  0  0  0  0
  7 15  1  0  0  0  0
  7 17  2  0  0  0  0
  8 11  1  0  0  0  0
  9 14  1  0  0  0  0
 10 11  1  0  0  0  0
 10 14  1  0  0  0  0
 12 18  1  0  0  0  0
 12 19  1  0  0  0  0
 12 20  1  0  0  0  0
  1 21  1  0  0  0  0
  2 22  1  0  0  0  0
  3 23  1  0  0  0  0
  8 24  1  0  0  0  0
  8 25  1  0  0  0  0
  8 26  1  0  0  0  0
  9 27  1  0  0  0  0
  9 28  1  0  0  0  0
  9 29  1  0  0  0  0
 10 30  1  0  0  0  0
 10 31  1  0  0  0  0
 11 32  1  0  0  0  0
M  CHG  1  15  -1
M  END
> <Hybrid2>
-5.0367560386657715

> <Hybrid2>
-5.036756

$$$$
C42701872
  -OEChem-02152218503D

 32 32  0     1  0  0  0  0  0999 V2000
    9.4272  -26.9014  -11.2582 C   0  0  0  0  0  0  0  0  0  0  0  0
   10.6701  -27.1265  -11.8394 C   0  0  0  0  0  0  0  0  0  0  0  0
   10.5368  -26.2992   -9.2426 C   0  0  0  0  0  0  0  0  0  0  0  0
    9.3506  -26.4797   -9.9355 C   0  0  0  0  0  0  0  0  0  0  0  0
   11.7973  -26.9168  -11.0614 C   0  0  0  0  0  0  0  0  0  0  0  0
    8.0510  -26.2320   -9.2912 C   0  0  0  0  0  0  0  0  0  0  0  0
    6.0095  -30.0083   -9.5798 C   0  0  0  0  0  0  0  0  0  0  0  0
    8.3211  -30.7337   -9.8816 C   0  0  0  0  0  0  0  0  0  0  0  0
    6.1478  -27.0687   -7.9678 C   0  0  0  0  0  0  0  0  0  0  0  0
    7.9543  -28.6526   -8.5391 C   0  0  0  0  0  0  0  0  0  0  0  0
    7.4547  -29.4871   -9.7161 C   0  0  2  0  0  0  0  0  0  0  0  0
   13.1477  -27.1503  -11.6525 C   0  0  0  0  0  0  0  0  0  0  0  0
   11.7626  -26.5076   -9.7734 N   0  0  0  0  0  0  0  0  0  0  0  0
    7.4185  -27.2755   -8.6304 N   0  0  0  0  0  0  0  0  0  0  0  0
    5.8027  -30.7189   -8.5534 O   0  5  0  0  0  0  0  0  0  0  0  0
    7.6126  -25.0851   -9.3731 O   0  0  0  0  0  0  0  0  0  0  0  0
    5.2051  -29.6724  -10.4930 O   0  0  0  0  0  0  0  0  0  0  0  0
   13.1106  -27.5631  -12.9537 F   0  0  0  0  0  0  0  0  0  0  0  0
   13.9426  -26.0401  -11.6528 F   0  0  0  0  0  0  0  0  0  0  0  0
   13.8540  -28.1073  -10.9839 F   0  0  0  0  0  0  0  0  0  0  0  0
    8.5253  -27.0570  -11.8440 H   0  0  0  0  0  0  0  0  0  0  0  0
   10.7444  -27.4546  -12.8706 H   0  0  0  0  0  0  0  0  0  0  0  0
   10.5414  -25.9718   -8.2071 H   0  0  0  0  0  0  0  0  0  0  0  0
    8.2908  -31.3638   -8.9854 H   0  0  0  0  0  0  0  0  0  0  0  0
    7.9760  -31.3353  -10.7293 H   0  0  0  0  0  0  0  0  0  0  0  0
    9.3686  -30.4713  -10.0670 H   0  0  0  0  0  0  0  0  0  0  0  0
    5.3285  -27.2687   -8.6741 H   0  0  0  0  0  0  0  0  0  0  0  0
    6.0665  -27.7518   -7.1094 H   0  0  0  0  0  0  0  0  0  0  0  0
    6.0828  -26.0285   -7.6161 H   0  0  0  0  0  0  0  0  0  0  0  0
    7.6126  -29.0813   -7.5905 H   0  0  0  0  0  0  0  0  0  0  0  0
    9.0476  -28.5993   -8.5060 H   0  0  0  0  0  0  0  0  0  0  0  0
    7.5149  -28.8878  -10.6342 H   0  0  0  0  0  0  0  0  0  0  0  0
  1  2  2  0  0  0  0
  1  4  1  0  0  0  0
  2  5  1  0  0  0  0
  3  4  2  0  0  0  0
  3 13  1  0  0  0  0
  4  6  1  0  0  0  0
  5 12  1  0  0  0  0
  5 13  2  0  0  0  0
  6 14  1  0  0  0  0
  6 16  2  0  0  0  0
  7 11  1  0  0  0  0
  7 15  1  0  0  0  0
  7 17  2  0  0  0  0
  8 11  1  0  0  0  0
  9 14  1  0  0  0  0
 10 11  1  0  0  0  0
 10 14  1  0  0  0  0
 12 18  1  0  0  0  0
 12 19  1  0  0  0  0
 12 20  1  0  0  0  0
  1 21  1  0  0  0  0
  2 22  1  0  0  0  0
  3 23  1  0  0  0  0
  8 24  1  0  0  0  0
  8 25  1  0  0  0  0
  8 26  1  0  0  0  0
  9 27  1  0  0  0  0
  9 28  1  0  0  0  0
  9 29  1  0  0  0  0
 10 30  1  0  0  0  0
 10 31  1  0  0  0  0
 11 32  1  0  0  0  0
M  CHG  1  15  -1
M  END
> <Hybrid2>
-5.0367560386657715

> <Hybrid2>
-4.822574

$$$$
C43584090
  -OEChem-02152218503D

 44 45  0     1  0  0  0  0  0999 V2000
    8.0180  -25.4050  -10.3704 C   0  0  0  0  0  0  0  0  0  0  0  0
    4.8670  -30.5878   -9.8892 C   0  0  0  0  0  0  0  0  0  0  0  0
    4.5745  -25.5756   -9.4236 C   0  0  0  0  0  0  0  0  0  0  0  0
   13.4272  -27.5329  -11.3443 C   0  0  0  0  0  0  0  0  0  0  0  0
    4.4940  -26.8571   -8.5946 C   0  0  0  0  0  0  0  0  0  0  0  0
   12.1317  -27.1355  -10.6825 C   0  0  0  0  0  0  0  0  0  0  0  0
    5.9043  -24.8606   -9.2063 C   0  0  0  0  0  0  0  0  0  0  0  0
    7.0144  -26.9977   -8.6580 C   0  0  0  0  0  0  0  0  0  0  0  0
   13.4837  -26.5796  -12.5192 C   0  0  0  0  0  0  0  0  0  0  0  0
    5.7020  -27.7666   -8.8674 C   0  0  1  0  0  0  0  0  0  0  0  0
   11.2554  -26.8382  -11.8871 C   0  0  1  0  0  0  0  0  0  0  0  0
    9.1406  -26.3909  -10.5741 C   0  0  0  0  0  0  0  0  0  0  0  0
    4.6397  -30.0146   -8.4854 C   0  0  0  0  0  0  0  0  0  0  0  0
    5.6544  -29.0092   -7.9819 C   0  0  0  0  0  0  0  0  0  0  0  0
   10.1342  -25.8604  -11.5933 C   0  0  0  0  0  0  0  0  0  0  0  0
    7.0283  -25.7645   -9.4563 N   0  0  0  0  0  0  0  0  0  0  0  0
    3.8357  -30.9231  -10.5337 O   0  5  0  0  0  0  0  0  0  0  0  0
    8.0213  -24.3484  -11.0074 O   0  0  0  0  0  0  0  0  0  0  0  0
    6.0821  -30.6416  -10.2365 O   0  0  0  0  0  0  0  0  0  0  0  0
   12.1273  -26.2935  -12.8920 O   0  0  0  0  0  0  0  0  0  0  0  0
    4.4554  -25.8159  -10.4873 H   0  0  0  0  0  0  0  0  0  0  0  0
    3.7482  -24.9095   -9.1511 H   0  0  0  0  0  0  0  0  0  0  0  0
   14.2987  -27.4554  -10.6892 H   0  0  0  0  0  0  0  0  0  0  0  0
   13.3596  -28.5665  -11.7039 H   0  0  0  0  0  0  0  0  0  0  0  0
    4.4535  -26.5967   -7.5292 H   0  0  0  0  0  0  0  0  0  0  0  0
    3.5632  -27.3863   -8.8303 H   0  0  0  0  0  0  0  0  0  0  0  0
   11.7169  -27.9143  -10.0367 H   0  0  0  0  0  0  0  0  0  0  0  0
   12.2893  -26.2343  -10.0776 H   0  0  0  0  0  0  0  0  0  0  0  0
    5.9598  -23.9792   -9.8528 H   0  0  0  0  0  0  0  0  0  0  0  0
    5.9885  -24.5124   -8.1700 H   0  0  0  0  0  0  0  0  0  0  0  0
    7.1267  -26.6995   -7.6080 H   0  0  0  0  0  0  0  0  0  0  0  0
    7.8615  -27.6438   -8.8977 H   0  0  0  0  0  0  0  0  0  0  0  0
   13.9580  -25.6331  -12.2386 H   0  0  0  0  0  0  0  0  0  0  0  0
   14.0207  -26.9989  -13.3746 H   0  0  0  0  0  0  0  0  0  0  0  0
    5.6590  -28.0975   -9.9158 H   0  0  0  0  0  0  0  0  0  0  0  0
   10.8398  -27.7696  -12.2914 H   0  0  0  0  0  0  0  0  0  0  0  0
    8.6856  -27.3132  -10.9366 H   0  0  0  0  0  0  0  0  0  0  0  0
    9.6083  -26.5774   -9.6079 H   0  0  0  0  0  0  0  0  0  0  0  0
    4.6561  -30.8713   -7.8000 H   0  0  0  0  0  0  0  0  0  0  0  0
    3.6296  -29.5882   -8.4422 H   0  0  0  0  0  0  0  0  0  0  0  0
    6.6568  -29.4269   -7.9365 H   0  0  0  0  0  0  0  0  0  0  0  0
    5.3822  -28.6743   -6.9831 H   0  0  0  0  0  0  0  0  0  0  0  0
   10.5651  -24.9108  -11.2543 H   0  0  0  0  0  0  0  0  0  0  0  0
    9.5955  -25.6571  -12.5261 H   0  0  0  0  0  0  0  0  0  0  0  0
  1 12  1  0  0  0  0
  1 16  1  0  0  0  0
  1 18  2  0  0  0  0
  2 13  1  0  0  0  0
  2 17  1  0  0  0  0
  2 19  2  0  0  0  0
  3  5  1  0  0  0  0
  3  7  1  0  0  0  0
  4  6  1  0  0  0  0
  4  9  1  0  0  0  0
  5 10  1  0  0  0  0
  6 11  1  0  0  0  0
  7 16  1  0  0  0  0
  8 10  1  0  0  0  0
  8 16  1  0  0  0  0
  9 20  1  0  0  0  0
 10 14  1  0  0  0  0
 11 15  1  0  0  0  0
 11 20  1  0  0  0  0
 12 15  1  0  0  0  0
 13 14  1  0  0  0  0
  3 21  1  0  0  0  0
  3 22  1  0  0  0  0
  4 23  1  0  0  0  0
  4 24  1  0  0  0  0
  5 25  1  0  0  0  0
  5 26  1  0  0  0  0
  6 27  1  0  0  0  0
  6 28  1  0  0  0  0
  7 29  1  0  0  0  0
  7 30  1  0  0  0  0
  8 31  1  0  0  0  0
  8 32  1  0  0  0  0
  9 33  1  0  0  0  0
  9 34  1  0  0  0  0
 10 35  1  0  0  0  0
 11 36  1  0  0  0  0
 12 37  1  0  0  0  0
 12 38  1  0  0  0  0
 13 39  1  0  0  0  0
 13 40  1  0  0  0  0
 14 41  1  0  0  0  0
 14 42  1  0  0  0  0
 15 43  1  0  0  0  0
 15 44  1  0  0  0  0
M  CHG  1  17  -1
M  END
> <Hybrid2>
-5.312434196472168

> <Hybrid2>
-5.312434

$$$$
C43584090
  -OEChem-02152218503D

 44 45  0     1  0  0  0  0  0999 V2000
    8.1484  -24.5589  -10.7615 C   0  0  0  0  0  0  0  0  0  0  0  0
    6.3053  -30.2166   -9.4902 C   0  0  0  0  0  0  0  0  0  0  0  0
    4.7276  -25.4995  -10.3175 C   0  0  0  0  0  0  0  0  0  0  0  0
   13.8247  -25.9677  -12.5048 C   0  0  0  0  0  0  0  0  0  0  0  0
    4.7877  -26.5618   -9.2203 C   0  0  0  0  0  0  0  0  0  0  0  0
   12.8914  -24.7879  -12.3982 C   0  0  0  0  0  0  0  0  0  0  0  0
    5.7722  -24.4115  -10.0897 C   0  0  0  0  0  0  0  0  0  0  0  0
    7.2251  -25.9983   -8.8768 C   0  0  0  0  0  0  0  0  0  0  0  0
   12.8639  -27.1351  -12.4235 C   0  0  0  0  0  0  0  0  0  0  0  0
    6.2083  -27.1305   -9.0812 C   0  0  1  0  0  0  0  0  0  0  0  0
   11.8767  -25.2951  -11.3881 C   0  0  1  0  0  0  0  0  0  0  0  0
    9.4920  -25.2098  -10.5500 C   0  0  0  0  0  0  0  0  0  0  0  0
    5.6618  -29.4647   -8.3191 C   0  0  0  0  0  0  0  0  0  0  0  0
    6.2787  -28.1359   -7.9346 C   0  0  0  0  0  0  0  0  0  0  0  0
   10.5177  -24.6338  -11.5111 C   0  0  0  0  0  0  0  0  0  0  0  0
    7.1070  -24.9939   -9.9425 N   0  0  0  0  0  0  0  0  0  0  0  0
    5.5410  -30.9485  -10.1767 O   0  5  0  0  0  0  0  0  0  0  0  0
    8.0293  -23.6916  -11.6308 O   0  0  0  0  0  0  0  0  0  0  0  0
    7.5425  -29.9944   -9.6316 O   0  0  0  0  0  0  0  0  0  0  0  0
   11.7543  -26.7089  -11.6188 O   0  0  0  0  0  0  0  0  0  0  0  0
    4.8923  -25.9689  -11.2952 H   0  0  0  0  0  0  0  0  0  0  0  0
    3.7276  -25.0522  -10.3411 H   0  0  0  0  0  0  0  0  0  0  0  0
   14.4264  -25.9726  -13.4173 H   0  0  0  0  0  0  0  0  0  0  0  0
   14.5053  -25.9825  -11.6453 H   0  0  0  0  0  0  0  0  0  0  0  0
    4.4665  -26.1181   -8.2693 H   0  0  0  0  0  0  0  0  0  0  0  0
    4.0808  -27.3669   -9.4527 H   0  0  0  0  0  0  0  0  0  0  0  0
   13.3883  -23.8684  -12.0768 H   0  0  0  0  0  0  0  0  0  0  0  0
   12.4204  -24.6027  -13.3712 H   0  0  0  0  0  0  0  0  0  0  0  0
    5.7467  -23.6958  -10.9175 H   0  0  0  0  0  0  0  0  0  0  0  0
    5.5541  -23.8560   -9.1699 H   0  0  0  0  0  0  0  0  0  0  0  0
    7.0429  -25.4792   -7.9275 H   0  0  0  0  0  0  0  0  0  0  0  0
    8.2332  -26.4145   -8.8237 H   0  0  0  0  0  0  0  0  0  0  0  0
   12.4753  -27.3976  -13.4132 H   0  0  0  0  0  0  0  0  0  0  0  0
   13.3206  -28.0246  -11.9807 H   0  0  0  0  0  0  0  0  0  0  0  0
    6.4638  -27.6605  -10.0109 H   0  0  0  0  0  0  0  0  0  0  0  0
   12.2615  -25.1670  -10.3687 H   0  0  0  0  0  0  0  0  0  0  0  0
    9.3570  -26.2753  -10.7376 H   0  0  0  0  0  0  0  0  0  0  0  0
    9.7807  -25.0625   -9.5098 H   0  0  0  0  0  0  0  0  0  0  0  0
    5.7415  -30.1292   -7.4496 H   0  0  0  0  0  0  0  0  0  0  0  0
    4.5925  -29.3395   -8.5305 H   0  0  0  0  0  0  0  0  0  0  0  0
    7.3204  -28.2376   -7.6415 H   0  0  0  0  0  0  0  0  0  0  0  0
    5.7336  -27.7004   -7.0997 H   0  0  0  0  0  0  0  0  0  0  0  0
   10.6281  -23.5539  -11.3563 H   0  0  0  0  0  0  0  0  0  0  0  0
   10.1508  -24.7786  -12.5339 H   0  0  0  0  0  0  0  0  0  0  0  0
  1 12  1  0  0  0  0
  1 16  1  0  0  0  0
  1 18  2  0  0  0  0
  2 13  1  0  0  0  0
  2 17  1  0  0  0  0
  2 19  2  0  0  0  0
  3  5  1  0  0  0  0
  3  7  1  0  0  0  0
  4  6  1  0  0  0  0
  4  9  1  0  0  0  0
  5 10  1  0  0  0  0
  6 11  1  0  0  0  0
  7 16  1  0  0  0  0
  8 10  1  0  0  0  0
  8 16  1  0  0  0  0
  9 20  1  0  0  0  0
 10 14  1  0  0  0  0
 11 15  1  0  0  0  0
 11 20  1  0  0  0  0
 12 15  1  0  0  0  0
 13 14  1  0  0  0  0
  3 21  1  0  0  0  0
  3 22  1  0  0  0  0
  4 23  1  0  0  0  0
  4 24  1  0  0  0  0
  5 25  1  0  0  0  0
  5 26  1  0  0  0  0
  6 27  1  0  0  0  0
  6 28  1  0  0  0  0
  7 29  1  0  0  0  0
  7 30  1  0  0  0  0
  8 31  1  0  0  0  0
  8 32  1  0  0  0  0
  9 33  1  0  0  0  0
  9 34  1  0  0  0  0
 10 35  1  0  0  0  0
 11 36  1  0  0  0  0
 12 37  1  0  0  0  0
 12 38  1  0  0  0  0
 13 39  1  0  0  0  0
 13 40  1  0  0  0  0
 14 41  1  0  0  0  0
 14 42  1  0  0  0  0
 15 43  1  0  0  0  0
 15 44  1  0  0  0  0
M  CHG  1  17  -1
M  END
> <Hybrid2>
-5.312434196472168

> <Hybrid2>
-3.892611

$$$$
C47873042
  -OEChem-02152218503D

 29 29  0     0  0  0  0  0  0999 V2000
    7.9600  -28.3609   -9.1157 C   0  0  0  0  0  0  0  0  0  0  0  0
    9.3285  -28.1592   -9.2567 C   0  0  0  0  0  0  0  0  0  0  0  0
    7.6182  -26.0743   -9.6734 C   0  0  0  0  0  0  0  0  0  0  0  0
    7.0818  -27.3037   -9.3263 C   0  0  0  0  0  0  0  0  0  0  0  0
    9.7643  -26.8915   -9.6071 C   0  0  0  0  0  0  0  0  0  0  0  0
    5.6312  -27.4863   -9.1851 C   0  0  0  0  0  0  0  0  0  0  0  0
   11.2016  -26.6203   -9.7681 C   0  0  0  0  0  0  0  0  0  0  0  0
   10.3316  -26.1162  -12.8649 C   0  0  0  0  0  0  0  0  0  0  0  0
   10.9410  -27.2632  -12.1330 C   0  0  0  0  0  0  0  0  0  0  0  0
   13.1774  -26.5586  -11.3579 C   0  0  0  0  0  0  0  0  0  0  0  0
   14.0173  -27.7943  -11.1539 C   0  0  0  0  0  0  0  0  0  0  0  0
    8.9416  -25.8401   -9.8198 N   0  0  0  0  0  0  0  0  0  0  0  0
   11.7738  -26.8009  -11.0316 N   0  0  0  0  0  0  0  0  0  0  0  0
    4.8538  -26.4782   -9.3894 O   0  5  0  0  0  0  0  0  0  0  0  0
    5.1785  -28.6492   -8.8606 O   0  0  0  0  0  0  0  0  0  0  0  0
   11.7989  -26.2357   -8.7634 O   0  0  0  0  0  0  0  0  0  0  0  0
   15.3086  -27.5446  -11.4647 F   0  0  0  0  0  0  0  0  0  0  0  0
   13.9787  -28.2104   -9.8701 F   0  0  0  0  0  0  0  0  0  0  0  0
   13.5974  -28.8106  -11.9371 F   0  0  0  0  0  0  0  0  0  0  0  0
    7.5886  -29.3452   -8.8434 H   0  0  0  0  0  0  0  0  0  0  0  0
   10.0232  -28.9765   -9.0951 H   0  0  0  0  0  0  0  0  0  0  0  0
    6.9831  -25.2110   -9.8477 H   0  0  0  0  0  0  0  0  0  0  0  0
   11.1279  -25.4731  -13.2679 H   0  0  0  0  0  0  0  0  0  0  0  0
    9.7134  -26.4958  -13.6917 H   0  0  0  0  0  0  0  0  0  0  0  0
    9.7036  -25.5333  -12.1751 H   0  0  0  0  0  0  0  0  0  0  0  0
   10.1388  -27.9010  -11.7334 H   0  0  0  0  0  0  0  0  0  0  0  0
   11.5599  -27.8464  -12.8308 H   0  0  0  0  0  0  0  0  0  0  0  0
   13.2232  -26.2281  -12.3997 H   0  0  0  0  0  0  0  0  0  0  0  0
   13.5296  -25.7428  -10.7199 H   0  0  0  0  0  0  0  0  0  0  0  0
  1  2  2  0  0  0  0
  1  4  1  0  0  0  0
  2  5  1  0  0  0  0
  3  4  2  0  0  0  0
  3 12  1  0  0  0  0
  4  6  1  0  0  0  0
  5  7  1  0  0  0  0
  5 12  2  0  0  0  0
  6 14  1  0  0  0  0
  6 15  2  0  0  0  0
  7 13  1  0  0  0  0
  7 16  2  0  0  0  0
  8  9  1  0  0  0  0
  9 13  1  0  0  0  0
 10 11  1  0  0  0  0
 10 13  1  0  0  0  0
 11 17  1  0  0  0  0
 11 18  1  0  0  0  0
 11 19  1  0  0  0  0
  1 20  1  0  0  0  0
  2 21  1  0  0  0  0
  3 22  1  0  0  0  0
  8 23  1  0  0  0  0
  8 24  1  0  0  0  0
  8 25  1  0  0  0  0
  9 26  1  0  0  0  0
  9 27  1  0  0  0  0
 10 28  1  0  0  0  0
 10 29  1  0  0  0  0
M  CHG  1  14  -1
M  END
> <Hybrid2>
-4.18914794921875

> <Hybrid2>
-4.189148

$$$$
C47873042
  -OEChem-02152218503D

 29 29  0     0  0  0  0  0  0999 V2000
   10.4286  -26.8709  -11.5902 C   0  0  0  0  0  0  0  0  0  0  0  0
    9.0865  -26.8130  -11.2312 C   0  0  0  0  0  0  0  0  0  0  0  0
   10.9856  -27.0203   -9.2828 C   0  0  0  0  0  0  0  0  0  0  0  0
   11.4025  -26.9766  -10.6035 C   0  0  0  0  0  0  0  0  0  0  0  0
    8.7733  -26.8643   -9.8825 C   0  0  0  0  0  0  0  0  0  0  0  0
   12.8279  -27.0400  -10.9520 C   0  0  0  0  0  0  0  0  0  0  0  0
    7.3696  -26.8048   -9.4449 C   0  0  0  0  0  0  0  0  0  0  0  0
    5.3751  -27.2187   -6.9050 C   0  0  0  0  0  0  0  0  0  0  0  0
    5.4741  -27.8391   -8.2570 C   0  0  0  0  0  0  0  0  0  0  0  0
    7.6030  -29.0864   -8.3612 C   0  0  0  0  0  0  0  0  0  0  0  0
    7.4717  -30.1537   -9.4183 C   0  0  0  0  0  0  0  0  0  0  0  0
    9.6915  -26.9667   -8.8955 N   0  0  0  0  0  0  0  0  0  0  0  0
    6.8555  -27.8818   -8.7155 N   0  0  0  0  0  0  0  0  0  0  0  0
   13.6970  -27.1374  -10.0045 O   0  5  0  0  0  0  0  0  0  0  0  0
   13.1678  -26.9962  -12.1949 O   0  0  0  0  0  0  0  0  0  0  0  0
    6.7474  -25.7875   -9.7486 O   0  0  0  0  0  0  0  0  0  0  0  0
    8.1733  -31.2545   -9.0682 F   0  0  0  0  0  0  0  0  0  0  0  0
    6.1847  -30.5254   -9.5866 F   0  0  0  0  0  0  0  0  0  0  0  0
    7.9448  -29.7289  -10.6092 F   0  0  0  0  0  0  0  0  0  0  0  0
   10.7044  -26.8346  -12.6407 H   0  0  0  0  0  0  0  0  0  0  0  0
    8.3179  -26.7306  -11.9923 H   0  0  0  0  0  0  0  0  0  0  0  0
   11.6996  -27.0995   -8.4686 H   0  0  0  0  0  0  0  0  0  0  0  0
    5.7684  -26.1921   -6.9423 H   0  0  0  0  0  0  0  0  0  0  0  0
    4.3220  -27.1965   -6.5881 H   0  0  0  0  0  0  0  0  0  0  0  0
    5.9618  -27.8100   -6.1865 H   0  0  0  0  0  0  0  0  0  0  0  0
    5.0792  -28.8647   -8.2112 H   0  0  0  0  0  0  0  0  0  0  0  0
    4.8780  -27.2480   -8.9678 H   0  0  0  0  0  0  0  0  0  0  0  0
    8.6506  -28.7997   -8.2298 H   0  0  0  0  0  0  0  0  0  0  0  0
    7.2189  -29.4441   -7.4015 H   0  0  0  0  0  0  0  0  0  0  0  0
  1  2  2  0  0  0  0
  1  4  1  0  0  0  0
  2  5  1  0  0  0  0
  3  4  2  0  0  0  0
  3 12  1  0  0  0  0
  4  6  1  0  0  0  0
  5  7  1  0  0  0  0
  5 12  2  0  0  0  0
  6 14  1  0  0  0  0
  6 15  2  0  0  0  0
  7 13  1  0  0  0  0
  7 16  2  0  0  0  0
  8  9  1  0  0  0  0
  9 13  1  0  0  0  0
 10 11  1  0  0  0  0
 10 13  1  0  0  0  0
 11 17  1  0  0  0  0
 11 18  1  0  0  0  0
 11 19  1  0  0  0  0
  1 20  1  0  0  0  0
  2 21  1  0  0  0  0
  3 22  1  0  0  0  0
  8 23  1  0  0  0  0
  8 24  1  0  0  0  0
  8 25  1  0  0  0  0
  9 26  1  0  0  0  0
  9 27  1  0  0  0  0
 10 28  1  0  0  0  0
 10 29  1  0  0  0  0
M  CHG  1  14  -1
M  END
> <Hybrid2>
-4.18914794921875

> <Hybrid2>
-3.607069

$$$$
C49303752
  -OEChem-02152218503D

 31 32  0     0  0  0  0  0  0999 V2000
    6.8739  -27.3852   -8.4252 C   0  0  0  0  0  0  0  0  0  0  0  0
    7.4792  -26.1663   -8.7101 C   0  0  0  0  0  0  0  0  0  0  0  0
    8.3353  -28.4180   -9.9918 C   0  0  0  0  0  0  0  0  0  0  0  0
    7.3042  -28.5373   -9.0740 C   0  0  0  0  0  0  0  0  0  0  0  0
    8.5026  -26.1532   -9.6441 C   0  0  0  0  0  0  0  0  0  0  0  0
    6.6850  -29.8394   -8.7934 C   0  0  0  0  0  0  0  0  0  0  0  0
   11.0780  -25.5649  -11.9366 C   0  0  0  0  0  0  0  0  0  0  0  0
   14.2468  -27.3970  -11.3109 C   0  0  0  0  0  0  0  0  0  0  0  0
   13.6080  -26.5563  -10.2460 C   0  0  0  0  0  0  0  0  0  0  0  0
   12.7479  -27.3004  -11.2305 C   0  0  0  0  0  0  0  0  0  0  0  0
   12.2146  -27.0331  -13.6209 C   0  0  0  0  0  0  0  0  0  0  0  0
   10.9526  -25.2335  -10.4595 C   0  0  0  0  0  0  0  0  0  0  0  0
    8.9478  -27.2515  -10.2947 N   0  0  0  0  0  0  0  0  0  0  0  0
   11.9781  -26.5925  -12.2513 N   0  0  0  0  0  0  0  0  0  0  0  0
    7.1158  -30.8814   -9.4187 O   0  5  0  0  0  0  0  0  0  0  0  0
    5.7291  -29.9014   -7.9305 O   0  0  0  0  0  0  0  0  0  0  0  0
   10.4246  -24.9627  -12.7924 O   0  0  0  0  0  0  0  0  0  0  0  0
    9.2995  -24.6258  -10.0374 S   0  0  0  0  0  0  0  0  0  0  0  0
    6.0691  -27.4275   -7.6965 H   0  0  0  0  0  0  0  0  0  0  0  0
    7.1460  -25.2652   -8.2050 H   0  0  0  0  0  0  0  0  0  0  0  0
    8.7136  -29.2816  -10.5305 H   0  0  0  0  0  0  0  0  0  0  0  0
   14.7549  -26.8848  -12.1189 H   0  0  0  0  0  0  0  0  0  0  0  0
   14.7088  -28.3290  -11.0091 H   0  0  0  0  0  0  0  0  0  0  0  0
   13.6398  -26.9221   -9.2271 H   0  0  0  0  0  0  0  0  0  0  0  0
   13.6875  -25.4802  -10.3395 H   0  0  0  0  0  0  0  0  0  0  0  0
   12.2237  -28.1730  -10.8559 H   0  0  0  0  0  0  0  0  0  0  0  0
   13.0369  -26.4476  -14.0581 H   0  0  0  0  0  0  0  0  0  0  0  0
   12.4833  -28.0997  -13.6216 H   0  0  0  0  0  0  0  0  0  0  0  0
   11.3019  -26.8845  -14.2165 H   0  0  0  0  0  0  0  0  0  0  0  0
   11.1434  -26.1324   -9.8666 H   0  0  0  0  0  0  0  0  0  0  0  0
   11.6736  -24.4541  -10.1974 H   0  0  0  0  0  0  0  0  0  0  0  0
  1  2  2  0  0  0  0
  1  4  1  0  0  0  0
  2  5  1  0  0  0  0
  3  4  2  0  0  0  0
  3 13  1  0  0  0  0
  4  6  1  0  0  0  0
  5 13  2  0  0  0  0
  5 18  1  0  0  0  0
  6 15  1  0  0  0  0
  6 16  2  0  0  0  0
  7 12  1  0  0  0  0
  7 14  1  0  0  0  0
  7 17  2  0  0  0  0
  8  9  1  0  0  0  0
  8 10  1  0  0  0  0
  9 10  1  0  0  0  0
 10 14  1  0  0  0  0
 11 14  1  0  0  0  0
 12 18  1  0  0  0  0
  1 19  1  0  0  0  0
  2 20  1  0  0  0  0
  3 21  1  0  0  0  0
  8 22  1  0  0  0  0
  8 23  1  0  0  0  0
  9 24  1  0  0  0  0
  9 25  1  0  0  0  0
 10 26  1  0  0  0  0
 11 27  1  0  0  0  0
 11 28  1  0  0  0  0
 11 29  1  0  0  0  0
 12 30  1  0  0  0  0
 12 31  1  0  0  0  0
M  CHG  1  15  -1
M  END
> <Hybrid2>
-4.0873308181762695

> <Hybrid2>
-4.087331

$$$$
C49303752
  -OEChem-02152218503D

 31 32  0     0  0  0  0  0  0999 V2000
    5.9866  -27.3149   -9.3708 C   0  0  0  0  0  0  0  0  0  0  0  0
    6.6199  -26.0823   -9.4843 C   0  0  0  0  0  0  0  0  0  0  0  0
    8.1264  -28.3419   -9.2193 C   0  0  0  0  0  0  0  0  0  0  0  0
    6.7470  -28.4711   -9.2354 C   0  0  0  0  0  0  0  0  0  0  0  0
    8.0050  -26.0600   -9.4568 C   0  0  0  0  0  0  0  0  0  0  0  0
    6.1067  -29.7873   -9.1124 C   0  0  0  0  0  0  0  0  0  0  0  0
   10.1060  -25.7212  -11.7491 C   0  0  0  0  0  0  0  0  0  0  0  0
   13.5576  -27.0882  -11.8371 C   0  0  0  0  0  0  0  0  0  0  0  0
   13.1442  -26.0781  -10.8088 C   0  0  0  0  0  0  0  0  0  0  0  0
   12.1539  -27.0998  -11.2966 C   0  0  0  0  0  0  0  0  0  0  0  0
   10.9000  -27.4427  -13.3894 C   0  0  0  0  0  0  0  0  0  0  0  0
   10.3766  -25.0658  -10.4057 C   0  0  0  0  0  0  0  0  0  0  0  0
    8.7774  -27.1619   -9.3269 N   0  0  0  0  0  0  0  0  0  0  0  0
   11.0173  -26.7159  -12.1309 N   0  0  0  0  0  0  0  0  0  0  0  0
    6.8511  -30.8328   -8.9892 O   0  5  0  0  0  0  0  0  0  0  0  0
    4.8195  -29.8579   -9.1317 O   0  0  0  0  0  0  0  0  0  0  0  0
    9.1442  -25.3915  -12.4477 O   0  0  0  0  0  0  0  0  0  0  0  0
    8.8515  -24.5153   -9.5988 S   0  0  0  0  0  0  0  0  0  0  0  0
    4.9013  -27.3643   -9.3881 H   0  0  0  0  0  0  0  0  0  0  0  0
    6.0292  -25.1778   -9.5896 H   0  0  0  0  0  0  0  0  0  0  0  0
    8.7729  -29.2083   -9.1172 H   0  0  0  0  0  0  0  0  0  0  0  0
   13.7185  -26.7385  -12.8496 H   0  0  0  0  0  0  0  0  0  0  0  0
   14.2245  -27.8825  -11.5251 H   0  0  0  0  0  0  0  0  0  0  0  0
   13.5327  -26.1920   -9.8042 H   0  0  0  0  0  0  0  0  0  0  0  0
   13.0277  -25.0506  -11.1312 H   0  0  0  0  0  0  0  0  0  0  0  0
   11.9039  -27.9012  -10.6097 H   0  0  0  0  0  0  0  0  0  0  0  0
   11.4561  -26.9095  -14.1746 H   0  0  0  0  0  0  0  0  0  0  0  0
   11.3153  -28.4541  -13.2687 H   0  0  0  0  0  0  0  0  0  0  0  0
    9.8400  -27.5132  -13.6746 H   0  0  0  0  0  0  0  0  0  0  0  0
   10.8694  -25.7827   -9.7430 H   0  0  0  0  0  0  0  0  0  0  0  0
   11.0156  -24.1899  -10.5486 H   0  0  0  0  0  0  0  0  0  0  0  0
  1  2  2  0  0  0  0
  1  4  1  0  0  0  0
  2  5  1  0  0  0  0
  3  4  2  0  0  0  0
  3 13  1  0  0  0  0
  4  6  1  0  0  0  0
  5 13  2  0  0  0  0
  5 18  1  0  0  0  0
  6 15  1  0  0  0  0
  6 16  2  0  0  0  0
  7 12  1  0  0  0  0
  7 14  1  0  0  0  0
  7 17  2  0  0  0  0
  8  9  1  0  0  0  0
  8 10  1  0  0  0  0
  9 10  1  0  0  0  0
 10 14  1  0  0  0  0
 11 14  1  0  0  0  0
 12 18  1  0  0  0  0
  1 19  1  0  0  0  0
  2 20  1  0  0  0  0
  3 21  1  0  0  0  0
  8 22  1  0  0  0  0
  8 23  1  0  0  0  0
  9 24  1  0  0  0  0
  9 25  1  0  0  0  0
 10 26  1  0  0  0  0
 11 27  1  0  0  0  0
 11 28  1  0  0  0  0
 11 29  1  0  0  0  0
 12 30  1  0  0  0  0
 12 31  1  0  0  0  0
M  CHG  1  15  -1
M  END
> <Hybrid2>
-4.0873308181762695

> <Hybrid2>
-4.068118

$$$$
C49607109
  -OEChem-02152218503D

 33 33  0     1  0  0  0  0  0999 V2000
   13.2590  -27.6587  -10.8380 C   0  0  0  0  0  0  0  0  0  0  0  0
   11.6714  -26.4647   -9.4306 C   0  0  0  0  0  0  0  0  0  0  0  0
   10.4269  -25.8669   -9.2321 C   0  0  0  0  0  0  0  0  0  0  0  0
    9.7889  -26.4458  -11.4893 C   0  0  0  0  0  0  0  0  0  0  0  0
   11.9747  -27.0530  -10.6585 C   0  0  0  0  0  0  0  0  0  0  0  0
   11.0334  -27.0435  -11.6878 C   0  0  0  0  0  0  0  0  0  0  0  0
    9.4856  -25.8575  -10.2614 C   0  0  0  0  0  0  0  0  0  0  0  0
    8.7818  -23.0983  -10.8783 C   0  0  0  0  0  0  0  0  0  0  0  0
    5.2557  -28.2831   -7.8737 C   0  0  0  0  0  0  0  0  0  0  0  0
    8.1341  -23.8460   -9.7249 C   0  0  0  0  0  0  0  0  0  0  0  0
    7.0103  -26.0280  -10.1987 C   0  0  0  0  0  0  0  0  0  0  0  0
    6.7551  -26.8082   -8.9221 C   0  0  0  0  0  0  0  0  0  0  0  0
   11.3241  -27.6629  -13.0173 C   0  0  0  0  0  0  0  0  0  0  0  0
   14.3003  -28.1499  -10.9836 N   0  0  0  0  0  0  0  0  0  0  0  0
    8.2273  -25.2531  -10.0598 N   0  0  3  0  0  0  0  0  0  0  0  0
    8.2447  -23.2828  -12.0070 O   0  5  0  0  0  0  0  0  0  0  0  0
    9.7695  -22.3761  -10.5634 O   0  0  0  0  0  0  0  0  0  0  0  0
    5.5420  -27.5389   -9.0498 O   0  0  0  0  0  0  0  0  0  0  0  0
   10.2911  -27.5595  -13.9028 F   0  0  0  0  0  0  0  0  0  0  0  0
   12.3977  -27.1089  -13.6513 F   0  0  0  0  0  0  0  0  0  0  0  0
   11.5977  -28.9953  -12.9230 F   0  0  0  0  0  0  0  0  0  0  0  0
   12.3943  -26.4631   -8.6182 H   0  0  0  0  0  0  0  0  0  0  0  0
   10.2010  -25.4117   -8.2711 H   0  0  0  0  0  0  0  0  0  0  0  0
    9.0555  -26.4379  -12.2929 H   0  0  0  0  0  0  0  0  0  0  0  0
    4.3194  -28.8306   -8.0069 H   0  0  0  0  0  0  0  0  0  0  0  0
    5.1745  -27.6032   -7.0219 H   0  0  0  0  0  0  0  0  0  0  0  0
    6.0675  -28.9922   -7.6953 H   0  0  0  0  0  0  0  0  0  0  0  0
    7.0869  -23.5514   -9.6061 H   0  0  0  0  0  0  0  0  0  0  0  0
    8.6571  -23.6421   -8.7854 H   0  0  0  0  0  0  0  0  0  0  0  0
    7.1263  -26.6978  -11.0567 H   0  0  0  0  0  0  0  0  0  0  0  0
    6.1855  -25.3359  -10.3934 H   0  0  0  0  0  0  0  0  0  0  0  0
    6.6479  -26.1204   -8.0776 H   0  0  0  0  0  0  0  0  0  0  0  0
    7.5682  -27.5100   -8.7099 H   0  0  0  0  0  0  0  0  0  0  0  0
  1  5  1  0  0  0  0
  1 14  3  0  0  0  0
  2  3  2  0  0  0  0
  2  5  1  0  0  0  0
  3  7  1  0  0  0  0
  4  6  1  0  0  0  0
  4  7  2  0  0  0  0
  5  6  2  0  0  0  0
  6 13  1  0  0  0  0
  7 15  1  0  0  0  0
  8 10  1  0  0  0  0
  8 16  1  0  0  0  0
  8 17  2  0  0  0  0
  9 18  1  0  0  0  0
 10 15  1  0  0  0  0
 11 12  1  0  0  0  0
 11 15  1  0  0  0  0
 12 18  1  0  0  0  0
 13 19  1  0  0  0  0
 13 20  1  0  0  0  0
 13 21  1  0  0  0  0
  2 22  1  0  0  0  0
  3 23  1  0  0  0  0
  4 24  1  0  0  0  0
  9 25  1  0  0  0  0
  9 26  1  0  0  0  0
  9 27  1  0  0  0  0
 10 28  1  0  0  0  0
 10 29  1  0  0  0  0
 11 30  1  0  0  0  0
 11 31  1  0  0  0  0
 12 32  1  0  0  0  0
 12 33  1  0  0  0  0
M  CHG  1  16  -1
M  END
> <Hybrid2>
-4.760072708129883

> <Hybrid2>
-4.760073

$$$$
C49607109
  -OEChem-02152218503D

 33 33  0     1  0  0  0  0  0999 V2000
   13.1454  -27.0209  -11.4215 C   0  0  0  0  0  0  0  0  0  0  0  0
   11.4178  -26.9429   -9.7080 C   0  0  0  0  0  0  0  0  0  0  0  0
   10.0764  -26.8805   -9.3307 C   0  0  0  0  0  0  0  0  0  0  0  0
    9.4236  -26.8488  -11.6566 C   0  0  0  0  0  0  0  0  0  0  0  0
   11.7621  -26.9581  -11.0597 C   0  0  0  0  0  0  0  0  0  0  0  0
   10.7650  -26.9111  -12.0339 C   0  0  0  0  0  0  0  0  0  0  0  0
    9.0793  -26.8335  -10.3049 C   0  0  0  0  0  0  0  0  0  0  0  0
    7.5046  -24.4102   -9.9350 C   0  0  0  0  0  0  0  0  0  0  0  0
    6.0597  -31.1416   -8.9631 C   0  0  0  0  0  0  0  0  0  0  0  0
    7.2368  -25.6653   -9.1214 C   0  0  0  0  0  0  0  0  0  0  0  0
    6.7951  -27.8039  -10.3377 C   0  0  0  0  0  0  0  0  0  0  0  0
    6.9211  -29.0022   -9.4147 C   0  0  0  0  0  0  0  0  0  0  0  0
   11.0966  -26.9242  -13.4919 C   0  0  0  0  0  0  0  0  0  0  0  0
   14.2671  -27.0719  -11.7148 N   0  0  0  0  0  0  0  0  0  0  0  0
    7.7231  -26.7708   -9.9226 N   0  0  3  0  0  0  0  0  0  0  0  0
    6.9396  -24.3716  -11.0645 O   0  5  0  0  0  0  0  0  0  0  0  0
    8.2494  -23.5562   -9.3760 O   0  0  0  0  0  0  0  0  0  0  0  0
    5.9843  -29.9986   -9.8039 O   0  0  0  0  0  0  0  0  0  0  0  0
    9.9983  -26.8713  -14.2998 F   0  0  0  0  0  0  0  0  0  0  0  0
   11.8792  -25.8761  -13.8801 F   0  0  0  0  0  0  0  0  0  0  0  0
   11.7739  -28.0480  -13.8623 F   0  0  0  0  0  0  0  0  0  0  0  0
   12.1830  -26.9784   -8.9362 H   0  0  0  0  0  0  0  0  0  0  0  0
    9.8193  -26.8695   -8.2745 H   0  0  0  0  0  0  0  0  0  0  0  0
    8.6464  -26.8111  -12.4170 H   0  0  0  0  0  0  0  0  0  0  0  0
    5.3282  -31.8845   -9.2903 H   0  0  0  0  0  0  0  0  0  0  0  0
    5.8598  -30.8484   -7.9294 H   0  0  0  0  0  0  0  0  0  0  0  0
    7.0636  -31.5674   -9.0312 H   0  0  0  0  0  0  0  0  0  0  0  0
    6.1672  -25.7814   -8.9214 H   0  0  0  0  0  0  0  0  0  0  0  0
    7.7635  -25.6283   -8.1627 H   0  0  0  0  0  0  0  0  0  0  0  0
    7.0243  -28.0748  -11.3732 H   0  0  0  0  0  0  0  0  0  0  0  0
    5.7826  -27.3919  -10.2909 H   0  0  0  0  0  0  0  0  0  0  0  0
    6.6933  -28.7080   -8.3855 H   0  0  0  0  0  0  0  0  0  0  0  0
    7.9273  -29.4324   -9.4487 H   0  0  0  0  0  0  0  0  0  0  0  0
  1  5  1  0  0  0  0
  1 14  3  0  0  0  0
  2  3  2  0  0  0  0
  2  5  1  0  0  0  0
  3  7  1  0  0  0  0
  4  6  1  0  0  0  0
  4  7  2  0  0  0  0
  5  6  2  0  0  0  0
  6 13  1  0  0  0  0
  7 15  1  0  0  0  0
  8 10  1  0  0  0  0
  8 16  1  0  0  0  0
  8 17  2  0  0  0  0
  9 18  1  0  0  0  0
 10 15  1  0  0  0  0
 11 12  1  0  0  0  0
 11 15  1  0  0  0  0
 12 18  1  0  0  0  0
 13 19  1  0  0  0  0
 13 20  1  0  0  0  0
 13 21  1  0  0  0  0
  2 22  1  0  0  0  0
  3 23  1  0  0  0  0
  4 24  1  0  0  0  0
  9 25  1  0  0  0  0
  9 26  1  0  0  0  0
  9 27  1  0  0  0  0
 10 28  1  0  0  0  0
 10 29  1  0  0  0  0
 11 30  1  0  0  0  0
 11 31  1  0  0  0  0
 12 32  1  0  0  0  0
 12 33  1  0  0  0  0
M  CHG  1  16  -1
M  END
> <Hybrid2>
-4.760072708129883

> <Hybrid2>
-4.228840

$$$$
C49892106
  -OEChem-02152218503D

 41 42  0     1  0  0  0  0  0999 V2000
    7.5640  -25.8365   -9.1925 C   0  0  0  0  0  0  0  0  0  0  0  0
    7.1747  -27.7643  -10.5958 C   0  0  0  0  0  0  0  0  0  0  0  0
    8.6746  -25.4980   -9.9655 C   0  0  0  0  0  0  0  0  0  0  0  0
    8.2853  -27.4258  -11.3689 C   0  0  0  0  0  0  0  0  0  0  0  0
    6.8141  -26.9697   -9.5076 C   0  0  0  0  0  0  0  0  0  0  0  0
    9.0352  -26.2926  -11.0538 C   0  0  0  0  0  0  0  0  0  0  0  0
   12.8347  -25.1218  -10.6382 C   0  0  0  0  0  0  0  0  0  0  0  0
   14.9666  -27.5972  -10.9521 C   0  0  0  0  0  0  0  0  0  0  0  0
   13.5698  -25.2684   -9.3277 C   0  0  0  0  0  0  0  0  0  0  0  0
   13.5811  -26.7771   -9.0906 C   0  0  0  0  0  0  0  0  0  0  0  0
   13.5418  -27.3771  -10.4861 C   0  0  1  0  0  0  0  0  0  0  0  0
    5.7855  -28.6974   -7.9875 C   0  0  0  0  0  0  0  0  0  0  0  0
    4.3160  -27.3066   -9.4912 C   0  0  0  0  0  0  0  0  0  0  0  0
   12.2950  -26.6593  -12.5636 C   0  0  0  0  0  0  0  0  0  0  0  0
   10.8294  -27.0304  -12.4293 C   0  0  0  0  0  0  0  0  0  0  0  0
    5.6263  -27.3313   -8.6816 C   0  0  0  0  0  0  0  0  0  0  0  0
   12.8448  -26.3705  -11.2555 N   0  0  0  0  0  0  0  0  0  0  0  0
   15.6926  -26.5648  -10.9728 O   0  5  0  0  0  0  0  0  0  0  0  0
   12.3679  -24.0738  -11.0590 O   0  0  0  0  0  0  0  0  0  0  0  0
   15.2446  -28.7899  -11.2608 O   0  0  0  0  0  0  0  0  0  0  0  0
   10.1255  -25.9592  -11.8139 O   0  0  0  0  0  0  0  0  0  0  0  0
    7.2903  -25.2118   -8.3465 H   0  0  0  0  0  0  0  0  0  0  0  0
    6.5963  -28.6491  -10.8486 H   0  0  0  0  0  0  0  0  0  0  0  0
    9.2547  -24.6138   -9.7152 H   0  0  0  0  0  0  0  0  0  0  0  0
    8.5608  -28.0485  -12.2153 H   0  0  0  0  0  0  0  0  0  0  0  0
   14.5832  -24.8722   -9.4456 H   0  0  0  0  0  0  0  0  0  0  0  0
   13.0510  -24.7367   -8.5263 H   0  0  0  0  0  0  0  0  0  0  0  0
   14.4500  -27.0798   -8.4972 H   0  0  0  0  0  0  0  0  0  0  0  0
   12.6780  -27.0647   -8.5378 H   0  0  0  0  0  0  0  0  0  0  0  0
   12.9923  -28.3232  -10.5017 H   0  0  0  0  0  0  0  0  0  0  0  0
    5.9230  -29.5053   -8.7144 H   0  0  0  0  0  0  0  0  0  0  0  0
    4.9077  -28.9430   -7.3800 H   0  0  0  0  0  0  0  0  0  0  0  0
    6.6595  -28.6909   -7.3266 H   0  0  0  0  0  0  0  0  0  0  0  0
    4.3666  -28.0189  -10.3223 H   0  0  0  0  0  0  0  0  0  0  0  0
    4.1239  -26.3136   -9.9122 H   0  0  0  0  0  0  0  0  0  0  0  0
    3.4540  -27.5769   -8.8716 H   0  0  0  0  0  0  0  0  0  0  0  0
   12.8727  -27.4775  -13.0054 H   0  0  0  0  0  0  0  0  0  0  0  0
   12.4062  -25.7658  -13.1853 H   0  0  0  0  0  0  0  0  0  0  0  0
   10.7235  -27.9143  -11.7926 H   0  0  0  0  0  0  0  0  0  0  0  0
   10.3753  -27.2362  -13.4041 H   0  0  0  0  0  0  0  0  0  0  0  0
    5.4948  -26.5915   -7.8690 H   0  0  0  0  0  0  0  0  0  0  0  0
  1  3  2  0  0  0  0
  1  5  1  0  0  0  0
  2  4  1  0  0  0  0
  2  5  2  0  0  0  0
  3  6  1  0  0  0  0
  4  6  2  0  0  0  0
  5 16  1  0  0  0  0
  6 21  1  0  0  0  0
  7  9  1  0  0  0  0
  7 17  1  0  0  0  0
  7 19  2  0  0  0  0
  8 11  1  0  0  0  0
  8 18  1  0  0  0  0
  8 20  2  0  0  0  0
  9 10  1  0  0  0  0
 10 11  1  0  0  0  0
 11 17  1  0  0  0  0
 12 16  1  0  0  0  0
 13 16  1  0  0  0  0
 14 15  1  0  0  0  0
 14 17  1  0  0  0  0
 15 21  1  0  0  0  0
  1 22  1  0  0  0  0
  2 23  1  0  0  0  0
  3 24  1  0  0  0  0
  4 25  1  0  0  0  0
  9 26  1  0  0  0  0
  9 27  1  0  0  0  0
 10 28  1  0  0  0  0
 10 29  1  0  0  0  0
 11 30  1  0  0  0  0
 12 31  1  0  0  0  0
 12 32  1  0  0  0  0
 12 33  1  0  0  0  0
 13 34  1  0  0  0  0
 13 35  1  0  0  0  0
 13 36  1  0  0  0  0
 14 37  1  0  0  0  0
 14 38  1  0  0  0  0
 15 39  1  0  0  0  0
 15 40  1  0  0  0  0
 16 41  1  0  0  0  0
M  CHG  1  18  -1
M  END
> <Hybrid2>
-0.7705973982810974

> <Hybrid2>
-0.770597

$$$$
C49892106
  -OEChem-02152218503D

 41 42  0     1  0  0  0  0  0999 V2000
    7.3300  -27.4522  -11.2739 C   0  0  0  0  0  0  0  0  0  0  0  0
    7.3025  -26.5060   -9.0511 C   0  0  0  0  0  0  0  0  0  0  0  0
    8.2870  -26.5143  -11.6614 C   0  0  0  0  0  0  0  0  0  0  0  0
    8.2596  -25.5681   -9.4385 C   0  0  0  0  0  0  0  0  0  0  0  0
    6.8377  -27.4480   -9.9688 C   0  0  0  0  0  0  0  0  0  0  0  0
    8.7518  -25.5723  -10.7437 C   0  0  0  0  0  0  0  0  0  0  0  0
   12.3169  -25.3760  -12.6889 C   0  0  0  0  0  0  0  0  0  0  0  0
   12.4507  -26.8831   -9.7765 C   0  0  0  0  0  0  0  0  0  0  0  0
   13.0513  -26.6816  -12.8768 C   0  0  0  0  0  0  0  0  0  0  0  0
   14.0012  -26.7330  -11.6820 C   0  0  0  0  0  0  0  0  0  0  0  0
   13.2918  -25.9319  -10.6032 C   0  0  1  0  0  0  0  0  0  0  0  0
    4.4863  -27.7967   -9.1304 C   0  0  0  0  0  0  0  0  0  0  0  0
    6.3206  -29.3793   -8.4336 C   0  0  0  0  0  0  0  0  0  0  0  0
   11.9118  -23.8197  -10.7456 C   0  0  0  0  0  0  0  0  0  0  0  0
   10.5816  -24.1893  -10.1151 C   0  0  0  0  0  0  0  0  0  0  0  0
    5.8150  -28.4510   -9.5542 C   0  0  0  0  0  0  0  0  0  0  0  0
   12.4989  -24.9908  -11.3627 N   0  0  0  0  0  0  0  0  0  0  0  0
   11.5923  -27.5449  -10.4234 O   0  5  0  0  0  0  0  0  0  0  0  0
   11.6630  -24.8162  -13.5563 O   0  0  0  0  0  0  0  0  0  0  0  0
   12.7183  -26.8908   -8.5422 O   0  0  0  0  0  0  0  0  0  0  0  0
    9.6930  -24.6519  -11.1242 O   0  0  0  0  0  0  0  0  0  0  0  0
    6.9734  -28.1824  -11.9954 H   0  0  0  0  0  0  0  0  0  0  0  0
    6.9245  -26.4951   -8.0320 H   0  0  0  0  0  0  0  0  0  0  0  0
    8.6668  -26.5229  -12.6796 H   0  0  0  0  0  0  0  0  0  0  0  0
    8.6179  -24.8372   -8.7190 H   0  0  0  0  0  0  0  0  0  0  0  0
   12.3263  -27.5010  -12.8498 H   0  0  0  0  0  0  0  0  0  0  0  0
   13.5934  -26.6927  -13.8255 H   0  0  0  0  0  0  0  0  0  0  0  0
   14.2268  -27.7659  -11.3974 H   0  0  0  0  0  0  0  0  0  0  0  0
   14.9459  -26.2420  -11.9475 H   0  0  0  0  0  0  0  0  0  0  0  0
   14.0033  -25.4054   -9.9599 H   0  0  0  0  0  0  0  0  0  0  0  0
    4.6241  -27.1167   -8.2826 H   0  0  0  0  0  0  0  0  0  0  0  0
    3.7453  -28.5481   -8.8365 H   0  0  0  0  0  0  0  0  0  0  0  0
    4.0647  -27.2162   -9.9587 H   0  0  0  0  0  0  0  0  0  0  0  0
    6.5869  -28.7961   -7.5450 H   0  0  0  0  0  0  0  0  0  0  0  0
    7.2094  -29.9379   -8.7467 H   0  0  0  0  0  0  0  0  0  0  0  0
    5.5575  -30.1079   -8.1386 H   0  0  0  0  0  0  0  0  0  0  0  0
   11.7861  -23.0526  -11.5163 H   0  0  0  0  0  0  0  0  0  0  0  0
   12.6053  -23.4517   -9.9835 H   0  0  0  0  0  0  0  0  0  0  0  0
   10.1315  -23.3087   -9.6464 H   0  0  0  0  0  0  0  0  0  0  0  0
   10.6978  -24.9748   -9.3612 H   0  0  0  0  0  0  0  0  0  0  0  0
    5.5695  -29.1115  -10.4076 H   0  0  0  0  0  0  0  0  0  0  0  0
  1  3  2  0  0  0  0
  1  5  1  0  0  0  0
  2  4  1  0  0  0  0
  2  5  2  0  0  0  0
  3  6  1  0  0  0  0
  4  6  2  0  0  0  0
  5 16  1  0  0  0  0
  6 21  1  0  0  0  0
  7  9  1  0  0  0  0
  7 17  1  0  0  0  0
  7 19  2  0  0  0  0
  8 11  1  0  0  0  0
  8 18  1  0  0  0  0
  8 20  2  0  0  0  0
  9 10  1  0  0  0  0
 10 11  1  0  0  0  0
 11 17  1  0  0  0  0
 12 16  1  0  0  0  0
 13 16  1  0  0  0  0
 14 15  1  0  0  0  0
 14 17  1  0  0  0  0
 15 21  1  0  0  0  0
  1 22  1  0  0  0  0
  2 23  1  0  0  0  0
  3 24  1  0  0  0  0
  4 25  1  0  0  0  0
  9 26  1  0  0  0  0
  9 27  1  0  0  0  0
 10 28  1  0  0  0  0
 10 29  1  0  0  0  0
 11 30  1  0  0  0  0
 12 31  1  0  0  0  0
 12 32  1  0  0  0  0
 12 33  1  0  0  0  0
 13 34  1  0  0  0  0
 13 35  1  0  0  0  0
 13 36  1  0  0  0  0
 14 37  1  0  0  0  0
 14 38  1  0  0  0  0
 15 39  1  0  0  0  0
 15 40  1  0  0  0  0
 16 41  1  0  0  0  0
M  CHG  1  18  -1
M  END
> <Hybrid2>
-0.7705973982810974

> <Hybrid2>
-0.472734

$$$$
C49892111
  -OEChem-02152218503D

 41 42  0     1  0  0  0  0  0999 V2000
    5.5174  -28.0110   -8.1186 C   0  0  0  0  0  0  0  0  0  0  0  0
    6.5490  -30.0517   -8.8985 C   0  0  0  0  0  0  0  0  0  0  0  0
    5.5283  -29.4032   -8.2034 C   0  0  0  0  0  0  0  0  0  0  0  0
    6.5273  -27.2672   -8.7291 C   0  0  0  0  0  0  0  0  0  0  0  0
    7.5589  -29.3079   -9.5089 C   0  0  0  0  0  0  0  0  0  0  0  0
    7.5480  -27.9157   -9.4242 C   0  0  0  0  0  0  0  0  0  0  0  0
   10.4775  -26.8102  -12.4655 C   0  0  0  0  0  0  0  0  0  0  0  0
   13.5578  -26.8972  -11.3368 C   0  0  0  0  0  0  0  0  0  0  0  0
   11.2812  -27.7009  -13.3818 C   0  0  0  0  0  0  0  0  0  0  0  0
   12.0999  -28.5586  -12.4194 C   0  0  0  0  0  0  0  0  0  0  0  0
   12.2711  -27.6835  -11.1889 C   0  0  2  0  0  0  0  0  0  0  0  0
    4.4484  -30.1986   -7.5512 C   0  0  0  0  0  0  0  0  0  0  0  0
    6.4985  -25.7776   -8.6271 C   0  0  0  0  0  0  0  0  0  0  0  0
    8.6434  -30.0202  -10.2483 C   0  0  0  0  0  0  0  0  0  0  0  0
   10.6735  -26.0858  -10.0574 C   0  0  0  0  0  0  0  0  0  0  0  0
    9.6919  -26.9034   -9.2378 C   0  0  0  0  0  0  0  0  0  0  0  0
   11.0917  -26.8473  -11.2158 N   0  0  0  0  0  0  0  0  0  0  0  0
   13.6307  -26.1714  -12.3669 O   0  5  0  0  0  0  0  0  0  0  0  0
    9.4990  -26.1634  -12.8085 O   0  0  0  0  0  0  0  0  0  0  0  0
   14.3943  -27.0705  -10.4065 O   0  0  0  0  0  0  0  0  0  0  0  0
    8.5405  -27.1849  -10.0232 O   0  0  0  0  0  0  0  0  0  0  0  0
    4.7212  -27.5057   -7.5769 H   0  0  0  0  0  0  0  0  0  0  0  0
    6.5580  -31.1375   -8.9619 H   0  0  0  0  0  0  0  0  0  0  0  0
   10.6257  -28.3098  -14.0092 H   0  0  0  0  0  0  0  0  0  0  0  0
   11.9236  -27.0745  -14.0084 H   0  0  0  0  0  0  0  0  0  0  0  0
   11.5282  -29.4580  -12.1579 H   0  0  0  0  0  0  0  0  0  0  0  0
   13.0422  -28.8793  -12.8755 H   0  0  0  0  0  0  0  0  0  0  0  0
   12.2998  -28.2798  -10.2719 H   0  0  0  0  0  0  0  0  0  0  0  0
    3.6150  -30.3541   -8.2473 H   0  0  0  0  0  0  0  0  0  0  0  0
    4.8173  -31.1799   -7.2256 H   0  0  0  0  0  0  0  0  0  0  0  0
    4.0644  -29.6910   -6.6567 H   0  0  0  0  0  0  0  0  0  0  0  0
    7.0484  -25.4469   -7.7383 H   0  0  0  0  0  0  0  0  0  0  0  0
    6.9501  -25.3109   -9.5112 H   0  0  0  0  0  0  0  0  0  0  0  0
    5.4689  -25.4047   -8.5600 H   0  0  0  0  0  0  0  0  0  0  0  0
    8.3624  -30.1535  -11.2995 H   0  0  0  0  0  0  0  0  0  0  0  0
    9.5857  -29.4600  -10.2067 H   0  0  0  0  0  0  0  0  0  0  0  0
    8.8393  -31.0071   -9.8109 H   0  0  0  0  0  0  0  0  0  0  0  0
   10.2190  -25.1529  -10.4060 H   0  0  0  0  0  0  0  0  0  0  0  0
   11.5625  -25.8513   -9.4641 H   0  0  0  0  0  0  0  0  0  0  0  0
    9.3711  -26.3340   -8.3600 H   0  0  0  0  0  0  0  0  0  0  0  0
   10.1331  -27.8496   -8.9079 H   0  0  0  0  0  0  0  0  0  0  0  0
  1  3  1  0  0  0  0
  1  4  2  0  0  0  0
  2  3  2  0  0  0  0
  2  5  1  0  0  0  0
  3 12  1  0  0  0  0
  4  6  1  0  0  0  0
  4 13  1  0  0  0  0
  5  6  2  0  0  0  0
  5 14  1  0  0  0  0
  6 21  1  0  0  0  0
  7  9  1  0  0  0  0
  7 17  1  0  0  0  0
  7 19  2  0  0  0  0
  8 11  1  0  0  0  0
  8 18  1  0  0  0  0
  8 20  2  0  0  0  0
  9 10  1  0  0  0  0
 10 11  1  0  0  0  0
 11 17  1  0  0  0  0
 15 16  1  0  0  0  0
 15 17  1  0  0  0  0
 16 21  1  0  0  0  0
  1 22  1  0  0  0  0
  2 23  1  0  0  0  0
  9 24  1  0  0  0  0
  9 25  1  0  0  0  0
 10 26  1  0  0  0  0
 10 27  1  0  0  0  0
 11 28  1  0  0  0  0
 12 29  1  0  0  0  0
 12 30  1  0  0  0  0
 12 31  1  0  0  0  0
 13 32  1  0  0  0  0
 13 33  1  0  0  0  0
 13 34  1  0  0  0  0
 14 35  1  0  0  0  0
 14 36  1  0  0  0  0
 14 37  1  0  0  0  0
 15 38  1  0  0  0  0
 15 39  1  0  0  0  0
 16 40  1  0  0  0  0
 16 41  1  0  0  0  0
M  CHG  1  18  -1
M  END
> <Hybrid2>
-5.129080772399902

> <Hybrid2>
-5.129081

$$$$
C49892111
  -OEChem-02152218503D

 41 42  0     1  0  0  0  0  0999 V2000
    5.8130  -28.0110   -8.1802 C   0  0  0  0  0  0  0  0  0  0  0  0
    6.8446  -30.0517   -8.9601 C   0  0  0  0  0  0  0  0  0  0  0  0
    5.8238  -29.4032   -8.2650 C   0  0  0  0  0  0  0  0  0  0  0  0
    6.8229  -27.2672   -8.7907 C   0  0  0  0  0  0  0  0  0  0  0  0
    7.8545  -29.3079   -9.5706 C   0  0  0  0  0  0  0  0  0  0  0  0
    7.8436  -27.9157   -9.4858 C   0  0  0  0  0  0  0  0  0  0  0  0
   10.7730  -26.8102  -12.5271 C   0  0  0  0  0  0  0  0  0  0  0  0
   13.8534  -26.8972  -11.3984 C   0  0  0  0  0  0  0  0  0  0  0  0
   11.5767  -27.7009  -13.4434 C   0  0  0  0  0  0  0  0  0  0  0  0
   12.3955  -28.5586  -12.4810 C   0  0  0  0  0  0  0  0  0  0  0  0
   12.5667  -27.6835  -11.2506 C   0  0  2  0  0  0  0  0  0  0  0  0
    4.7440  -30.1986   -7.6129 C   0  0  0  0  0  0  0  0  0  0  0  0
    6.7941  -25.7776   -8.6887 C   0  0  0  0  0  0  0  0  0  0  0  0
    8.9389  -30.0202  -10.3099 C   0  0  0  0  0  0  0  0  0  0  0  0
   10.9690  -26.0858  -10.1190 C   0  0  0  0  0  0  0  0  0  0  0  0
    9.9875  -26.9034   -9.2994 C   0  0  0  0  0  0  0  0  0  0  0  0
   11.3872  -26.8473  -11.2774 N   0  0  0  0  0  0  0  0  0  0  0  0
   13.9263  -26.1714  -12.4285 O   0  5  0  0  0  0  0  0  0  0  0  0
    9.7946  -26.1634  -12.8701 O   0  0  0  0  0  0  0  0  0  0  0  0
   14.6899  -27.0705  -10.4681 O   0  0  0  0  0  0  0  0  0  0  0  0
    8.8361  -27.1849  -10.0848 O   0  0  0  0  0  0  0  0  0  0  0  0
    5.0168  -27.5057   -7.6386 H   0  0  0  0  0  0  0  0  0  0  0  0
    6.8536  -31.1375   -9.0235 H   0  0  0  0  0  0  0  0  0  0  0  0
   10.9212  -28.3098  -14.0708 H   0  0  0  0  0  0  0  0  0  0  0  0
   12.2192  -27.0745  -14.0700 H   0  0  0  0  0  0  0  0  0  0  0  0
   11.8238  -29.4580  -12.2195 H   0  0  0  0  0  0  0  0  0  0  0  0
   13.3378  -28.8793  -12.9372 H   0  0  0  0  0  0  0  0  0  0  0  0
   12.5954  -28.2798  -10.3335 H   0  0  0  0  0  0  0  0  0  0  0  0
    3.9106  -30.3541   -8.3089 H   0  0  0  0  0  0  0  0  0  0  0  0
    5.1129  -31.1799   -7.2872 H   0  0  0  0  0  0  0  0  0  0  0  0
    4.3600  -29.6910   -6.7183 H   0  0  0  0  0  0  0  0  0  0  0  0
    7.3440  -25.4469   -7.7999 H   0  0  0  0  0  0  0  0  0  0  0  0
    7.2457  -25.3109   -9.5728 H   0  0  0  0  0  0  0  0  0  0  0  0
    5.7645  -25.4047   -8.6217 H   0  0  0  0  0  0  0  0  0  0  0  0
    8.6580  -30.1535  -11.3611 H   0  0  0  0  0  0  0  0  0  0  0  0
    9.8813  -29.4600  -10.2684 H   0  0  0  0  0  0  0  0  0  0  0  0
    9.1349  -31.0071   -9.8725 H   0  0  0  0  0  0  0  0  0  0  0  0
   10.5146  -25.1529  -10.4676 H   0  0  0  0  0  0  0  0  0  0  0  0
   11.8580  -25.8513   -9.5258 H   0  0  0  0  0  0  0  0  0  0  0  0
    9.6667  -26.3340   -8.4216 H   0  0  0  0  0  0  0  0  0  0  0  0
   10.4287  -27.8496   -8.9695 H   0  0  0  0  0  0  0  0  0  0  0  0
  1  3  1  0  0  0  0
  1  4  2  0  0  0  0
  2  3  2  0  0  0  0
  2  5  1  0  0  0  0
  3 12  1  0  0  0  0
  4  6  1  0  0  0  0
  4 13  1  0  0  0  0
  5  6  2  0  0  0  0
  5 14  1  0  0  0  0
  6 21  1  0  0  0  0
  7  9  1  0  0  0  0
  7 17  1  0  0  0  0
  7 19  2  0  0  0  0
  8 11  1  0  0  0  0
  8 18  1  0  0  0  0
  8 20  2  0  0  0  0
  9 10  1  0  0  0  0
 10 11  1  0  0  0  0
 11 17  1  0  0  0  0
 15 16  1  0  0  0  0
 15 17  1  0  0  0  0
 16 21  1  0  0  0  0
  1 22  1  0  0  0  0
  2 23  1  0  0  0  0
  9 24  1  0  0  0  0
  9 25  1  0  0  0  0
 10 26  1  0  0  0  0
 10 27  1  0  0  0  0
 11 28  1  0  0  0  0
 12 29  1  0  0  0  0
 12 30  1  0  0  0  0
 12 31  1  0  0  0  0
 13 32  1  0  0  0  0
 13 33  1  0  0  0  0
 13 34  1  0  0  0  0
 14 35  1  0  0  0  0
 14 36  1  0  0  0  0
 14 37  1  0  0  0  0
 15 38  1  0  0  0  0
 15 39  1  0  0  0  0
 16 40  1  0  0  0  0
 16 41  1  0  0  0  0
M  CHG  1  18  -1
M  END
> <Hybrid2>
-5.129080772399902

> <Hybrid2>
-5.032919

$$$$
C50292582
  -OEChem-02152218503D

 41 42  0     1  0  0  0  0  0999 V2000
   10.6029  -26.1427   -9.8641 C   0  0  0  0  0  0  0  0  0  0  0  0
   11.1999  -25.1649  -12.0284 C   0  0  0  0  0  0  0  0  0  0  0  0
   13.4176  -27.2652  -10.4589 C   0  0  0  0  0  0  0  0  0  0  0  0
    7.4786  -24.1542  -11.1505 C   0  0  0  0  0  0  0  0  0  0  0  0
    6.5758  -24.0973   -9.9499 C   0  0  0  0  0  0  0  0  0  0  0  0
   13.1474  -25.7497  -10.4755 C   0  0  0  0  0  0  0  0  0  0  0  0
   12.2702  -27.4210  -11.4735 C   0  0  0  0  0  0  0  0  0  0  0  0
    7.9483  -24.6996   -9.8304 C   0  0  0  0  0  0  0  0  0  0  0  0
   11.6995  -26.0699  -10.9505 C   0  0  0  0  0  0  0  0  0  0  0  0
    8.1474  -26.5755   -8.1608 C   0  0  0  0  0  0  0  0  0  0  0  0
    8.2610  -30.4669   -9.2171 C   0  0  0  0  0  0  0  0  0  0  0  0
    9.2109  -27.6068  -11.3355 C   0  0  0  0  0  0  0  0  0  0  0  0
    9.2714  -29.0096  -10.7593 C   0  0  0  0  0  0  0  0  0  0  0  0
    8.1118  -26.2000   -9.6350 C   0  0  2  0  0  0  0  0  0  0  0  0
    9.3581  -26.6311  -10.2631 N   0  0  0  0  0  0  0  0  0  0  0  0
   10.5508  -25.7319  -12.9505 O   0  5  0  0  0  0  0  0  0  0  0  0
   10.8672  -25.7746   -8.7164 O   0  0  0  0  0  0  0  0  0  0  0  0
   11.4937  -23.9461  -11.8751 O   0  0  0  0  0  0  0  0  0  0  0  0
    8.2416  -29.1674   -9.7915 O   0  0  0  0  0  0  0  0  0  0  0  0
   14.4057  -27.5758  -10.8073 H   0  0  0  0  0  0  0  0  0  0  0  0
   13.2165  -27.7377   -9.4905 H   0  0  0  0  0  0  0  0  0  0  0  0
    7.2243  -24.8515  -11.9391 H   0  0  0  0  0  0  0  0  0  0  0  0
    7.9163  -23.2258  -11.4965 H   0  0  0  0  0  0  0  0  0  0  0  0
    6.4083  -23.1308   -9.4904 H   0  0  0  0  0  0  0  0  0  0  0  0
    5.7166  -24.7564   -9.9344 H   0  0  0  0  0  0  0  0  0  0  0  0
   13.2388  -25.2535   -9.5050 H   0  0  0  0  0  0  0  0  0  0  0  0
   13.7574  -25.2036  -11.2053 H   0  0  0  0  0  0  0  0  0  0  0  0
   12.6031  -27.4020  -12.5184 H   0  0  0  0  0  0  0  0  0  0  0  0
   11.6391  -28.3020  -11.3257 H   0  0  0  0  0  0  0  0  0  0  0  0
    8.7002  -24.1350   -9.2924 H   0  0  0  0  0  0  0  0  0  0  0  0
    8.9672  -26.0599   -7.6485 H   0  0  0  0  0  0  0  0  0  0  0  0
    8.2946  -27.6533   -8.0364 H   0  0  0  0  0  0  0  0  0  0  0  0
    7.2164  -26.2975   -7.6542 H   0  0  0  0  0  0  0  0  0  0  0  0
    7.4587  -30.5524   -8.4802 H   0  0  0  0  0  0  0  0  0  0  0  0
    9.2287  -30.6408   -8.7398 H   0  0  0  0  0  0  0  0  0  0  0  0
    8.1081  -31.2068  -10.0064 H   0  0  0  0  0  0  0  0  0  0  0  0
   10.0127  -27.4414  -12.0621 H   0  0  0  0  0  0  0  0  0  0  0  0
    8.2458  -27.4361  -11.8219 H   0  0  0  0  0  0  0  0  0  0  0  0
   10.2320  -29.1683  -10.2593 H   0  0  0  0  0  0  0  0  0  0  0  0
    9.1436  -29.7700  -11.5366 H   0  0  0  0  0  0  0  0  0  0  0  0
    7.2859  -26.7264  -10.1257 H   0  0  0  0  0  0  0  0  0  0  0  0
  1  9  1  0  0  0  0
  1 15  1  0  0  0  0
  1 17  2  0  0  0  0
  2  9  1  0  0  0  0
  2 16  1  0  0  0  0
  2 18  2  0  0  0  0
  3  6  1  0  0  0  0
  3  7  1  0  0  0  0
  4  5  1  0  0  0  0
  4  8  1  0  0  0  0
  5  8  1  0  0  0  0
  6  9  1  0  0  0  0
  7  9  1  0  0  0  0
  8 14  1  0  0  0  0
 10 14  1  0  0  0  0
 11 19  1  0  0  0  0
 12 13  1  0  0  0  0
 12 15  1  0  0  0  0
 13 19  1  0  0  0  0
 14 15  1  0  0  0  0
  3 20  1  0  0  0  0
  3 21  1  0  0  0  0
  4 22  1  0  0  0  0
  4 23  1  0  0  0  0
  5 24  1  0  0  0  0
  5 25  1  0  0  0  0
  6 26  1  0  0  0  0
  6 27  1  0  0  0  0
  7 28  1  0  0  0  0
  7 29  1  0  0  0  0
  8 30  1  0  0  0  0
 10 31  1  0  0  0  0
 10 32  1  0  0  0  0
 10 33  1  0  0  0  0
 11 34  1  0  0  0  0
 11 35  1  0  0  0  0
 11 36  1  0  0  0  0
 12 37  1  0  0  0  0
 12 38  1  0  0  0  0
 13 39  1  0  0  0  0
 13 40  1  0  0  0  0
 14 41  1  0  0  0  0
M  CHG  1  16  -1
M  END
> <Hybrid2>
-2.3981430530548096

> <Hybrid2>
-2.398143

$$$$
C50292582
  -OEChem-02152218503D

 41 42  0     1  0  0  0  0  0999 V2000
    9.9505  -25.6824   -9.2591 C   0  0  0  0  0  0  0  0  0  0  0  0
   10.7500  -24.8296  -11.4109 C   0  0  0  0  0  0  0  0  0  0  0  0
   12.7999  -26.8420   -9.5291 C   0  0  0  0  0  0  0  0  0  0  0  0
    6.9712  -23.7641  -10.9365 C   0  0  0  0  0  0  0  0  0  0  0  0
    5.9627  -23.6377   -9.8289 C   0  0  0  0  0  0  0  0  0  0  0  0
   12.5431  -25.3293   -9.6554 C   0  0  0  0  0  0  0  0  0  0  0  0
   11.7492  -27.0527  -10.6343 C   0  0  0  0  0  0  0  0  0  0  0  0
    7.3142  -24.2349   -9.5503 C   0  0  0  0  0  0  0  0  0  0  0  0
   11.1425  -25.6732  -10.2426 C   0  0  0  0  0  0  0  0  0  0  0  0
    7.3465  -26.0138   -7.7669 C   0  0  0  0  0  0  0  0  0  0  0  0
    7.5290  -29.9589   -8.5883 C   0  0  0  0  0  0  0  0  0  0  0  0
    8.6889  -27.2248  -10.7676 C   0  0  0  0  0  0  0  0  0  0  0  0
    8.6865  -28.5929  -10.1105 C   0  0  0  0  0  0  0  0  0  0  0  0
    7.4486  -25.7221   -9.2568 C   0  0  2  0  0  0  0  0  0  0  0  0
    8.7441  -26.1903   -9.7427 N   0  0  0  0  0  0  0  0  0  0  0  0
   10.1842  -25.4466  -12.3555 O   0  5  0  0  0  0  0  0  0  0  0  0
   10.1112  -25.2506   -8.1145 O   0  0  0  0  0  0  0  0  0  0  0  0
   11.0371  -23.6047  -11.2999 O   0  0  0  0  0  0  0  0  0  0  0  0
    7.5713  -28.6939   -9.2341 O   0  0  0  0  0  0  0  0  0  0  0  0
   13.8135  -27.1736   -9.7673 H   0  0  0  0  0  0  0  0  0  0  0  0
   12.5077  -27.2586   -8.5583 H   0  0  0  0  0  0  0  0  0  0  0  0
    6.7853  -24.5044  -11.7047 H   0  0  0  0  0  0  0  0  0  0  0  0
    7.4452  -22.8576  -11.2923 H   0  0  0  0  0  0  0  0  0  0  0  0
    5.7606  -22.6466   -9.4417 H   0  0  0  0  0  0  0  0  0  0  0  0
    5.1011  -24.2933   -9.8554 H   0  0  0  0  0  0  0  0  0  0  0  0
   12.5486  -24.7792   -8.7100 H   0  0  0  0  0  0  0  0  0  0  0  0
   13.2211  -24.8264  -10.3557 H   0  0  0  0  0  0  0  0  0  0  0  0
   12.1765  -27.0934  -11.6437 H   0  0  0  0  0  0  0  0  0  0  0  0
   11.1010  -27.9228  -10.4959 H   0  0  0  0  0  0  0  0  0  0  0  0
    8.0176  -23.6422   -8.9780 H   0  0  0  0  0  0  0  0  0  0  0  0
    8.1194  -25.4716   -7.2112 H   0  0  0  0  0  0  0  0  0  0  0  0
    7.4740  -27.0831   -7.5692 H   0  0  0  0  0  0  0  0  0  0  0  0
    6.3749  -25.7059   -7.3643 H   0  0  0  0  0  0  0  0  0  0  0  0
    6.6620  -30.0011   -7.9245 H   0  0  0  0  0  0  0  0  0  0  0  0
    8.4476  -30.1073   -8.0152 H   0  0  0  0  0  0  0  0  0  0  0  0
    7.4437  -30.7419   -9.3455 H   0  0  0  0  0  0  0  0  0  0  0  0
    9.5550  -27.1021  -11.4257 H   0  0  0  0  0  0  0  0  0  0  0  0
    7.7736  -27.0801  -11.3494 H   0  0  0  0  0  0  0  0  0  0  0  0
    9.5961  -28.7249   -9.5164 H   0  0  0  0  0  0  0  0  0  0  0  0
    8.6251  -29.3957  -10.8524 H   0  0  0  0  0  0  0  0  0  0  0  0
    6.6674  -26.2739   -9.7910 H   0  0  0  0  0  0  0  0  0  0  0  0
  1  9  1  0  0  0  0
  1 15  1  0  0  0  0
  1 17  2  0  0  0  0
  2  9  1  0  0  0  0
  2 16  1  0  0  0  0
  2 18  2  0  0  0  0
  3  6  1  0  0  0  0
  3  7  1  0  0  0  0
  4  5  1  0  0  0  0
  4  8  1  0  0  0  0
  5  8  1  0  0  0  0
  6  9  1  0  0  0  0
  7  9  1  0  0  0  0
  8 14  1  0  0  0  0
 10 14  1  0  0  0  0
 11 19  1  0  0  0  0
 12 13  1  0  0  0  0
 12 15  1  0  0  0  0
 13 19  1  0  0  0  0
 14 15  1  0  0  0  0
  3 20  1  0  0  0  0
  3 21  1  0  0  0  0
  4 22  1  0  0  0  0
  4 23  1  0  0  0  0
  5 24  1  0  0  0  0
  5 25  1  0  0  0  0
  6 26  1  0  0  0  0
  6 27  1  0  0  0  0
  7 28  1  0  0  0  0
  7 29  1  0  0  0  0
  8 30  1  0  0  0  0
 10 31  1  0  0  0  0
 10 32  1  0  0  0  0
 10 33  1  0  0  0  0
 11 34  1  0  0  0  0
 11 35  1  0  0  0  0
 11 36  1  0  0  0  0
 12 37  1  0  0  0  0
 12 38  1  0  0  0  0
 13 39  1  0  0  0  0
 13 40  1  0  0  0  0
 14 41  1  0  0  0  0
M  CHG  1  16  -1
M  END
> <Hybrid2>
-2.3981430530548096

> <Hybrid2>
-2.190873

$$$$
C50922578
  -OEChem-02152218503D

 39 40  0     0  0  0  0  0  0999 V2000
    4.6383  -27.3098   -9.1873 C   0  0  0  0  0  0  0  0  0  0  0  0
    5.9180  -27.1609   -8.6951 C   0  0  0  0  0  0  0  0  0  0  0  0
    5.9924  -29.3019   -9.1650 C   0  0  0  0  0  0  0  0  0  0  0  0
    7.2042  -25.1028   -9.2760 C   0  0  0  0  0  0  0  0  0  0  0  0
   13.7226  -26.5634  -11.8927 C   0  0  0  0  0  0  0  0  0  0  0  0
    9.9706  -27.4021   -9.7627 C   0  0  0  0  0  0  0  0  0  0  0  0
    9.9305  -25.6155  -11.5393 C   0  0  0  0  0  0  0  0  0  0  0  0
    9.3281  -26.4146   -8.7899 C   0  0  0  0  0  0  0  0  0  0  0  0
    9.2911  -24.6646  -10.5303 C   0  0  0  0  0  0  0  0  0  0  0  0
   10.7940  -26.6734  -10.8356 C   0  0  0  0  0  0  0  0  0  0  0  0
    6.4933  -30.6864   -9.3067 C   0  0  0  0  0  0  0  0  0  0  0  0
    6.5172  -25.8843   -8.1847 C   0  0  0  0  0  0  0  0  0  0  0  0
   12.4860  -27.0452  -12.6605 C   0  0  0  0  0  0  0  0  0  0  0  0
   11.3696  -27.6640  -11.8447 C   0  0  0  0  0  0  0  0  0  0  0  0
    6.6958  -28.3023   -8.6812 N   0  0  0  0  0  0  0  0  0  0  0  0
    8.5441  -25.4068   -9.5135 N   0  0  0  0  0  0  0  0  0  0  0  0
   14.3483  -25.5873  -12.3897 O   0  5  0  0  0  0  0  0  0  0  0  0
    6.5668  -24.2499   -9.8991 O   0  0  0  0  0  0  0  0  0  0  0  0
   13.9572  -27.2089  -10.8305 O   0  0  0  0  0  0  0  0  0  0  0  0
    4.3884  -28.9404   -9.6564 S   0  0  0  0  0  0  0  0  0  0  0  0
    3.8616  -26.5655   -9.2925 H   0  0  0  0  0  0  0  0  0  0  0  0
   10.6154  -28.0917   -9.2050 H   0  0  0  0  0  0  0  0  0  0  0  0
    9.1868  -28.0087  -10.2344 H   0  0  0  0  0  0  0  0  0  0  0  0
    9.1431  -26.1019  -12.1294 H   0  0  0  0  0  0  0  0  0  0  0  0
   10.5454  -25.0396  -12.2413 H   0  0  0  0  0  0  0  0  0  0  0  0
    8.7228  -26.9628   -8.0658 H   0  0  0  0  0  0  0  0  0  0  0  0
   10.1004  -25.8788   -8.2252 H   0  0  0  0  0  0  0  0  0  0  0  0
   10.0608  -24.0816  -10.0108 H   0  0  0  0  0  0  0  0  0  0  0  0
    8.6414  -23.9554  -11.0525 H   0  0  0  0  0  0  0  0  0  0  0  0
   11.6332  -26.1645  -10.3429 H   0  0  0  0  0  0  0  0  0  0  0  0
    6.2880  -31.2747   -8.3988 H   0  0  0  0  0  0  0  0  0  0  0  0
    6.0267  -31.2068  -10.1590 H   0  0  0  0  0  0  0  0  0  0  0  0
    7.5803  -30.7133   -9.4881 H   0  0  0  0  0  0  0  0  0  0  0  0
    5.7427  -25.2557   -7.7417 H   0  0  0  0  0  0  0  0  0  0  0  0
    7.2434  -26.0858   -7.3957 H   0  0  0  0  0  0  0  0  0  0  0  0
   12.8423  -27.8078  -13.3645 H   0  0  0  0  0  0  0  0  0  0  0  0
   12.1002  -26.2107  -13.2593 H   0  0  0  0  0  0  0  0  0  0  0  0
   11.7009  -28.5442  -11.2995 H   0  0  0  0  0  0  0  0  0  0  0  0
   10.5516  -27.9599  -12.4986 H   0  0  0  0  0  0  0  0  0  0  0  0
  1  2  2  0  0  0  0
  1 20  1  0  0  0  0
  2 12  1  0  0  0  0
  2 15  1  0  0  0  0
  3 11  1  0  0  0  0
  3 15  2  0  0  0  0
  3 20  1  0  0  0  0
  4 12  1  0  0  0  0
  4 16  1  0  0  0  0
  4 18  2  0  0  0  0
  5 13  1  0  0  0  0
  5 17  1  0  0  0  0
  5 19  2  0  0  0  0
  6  8  1  0  0  0  0
  6 10  1  0  0  0  0
  7  9  1  0  0  0  0
  7 10  1  0  0  0  0
  8 16  1  0  0  0  0
  9 16  1  0  0  0  0
 10 14  1  0  0  0  0
 13 14  1  0  0  0  0
  1 21  1  0  0  0  0
  6 22  1  0  0  0  0
  6 23  1  0  0  0  0
  7 24  1  0  0  0  0
  7 25  1  0  0  0  0
  8 26  1  0  0  0  0
  8 27  1  0  0  0  0
  9 28  1  0  0  0  0
  9 29  1  0  0  0  0
 10 30  1  0  0  0  0
 11 31  1  0  0  0  0
 11 32  1  0  0  0  0
 11 33  1  0  0  0  0
 12 34  1  0  0  0  0
 12 35  1  0  0  0  0
 13 36  1  0  0  0  0
 13 37  1  0  0  0  0
 14 38  1  0  0  0  0
 14 39  1  0  0  0  0
M  CHG  1  17  -1
M  END
> <Hybrid2>
-4.165177345275879

> <Hybrid2>
-4.165177

$$$$
C50922578
  -OEChem-02152218503D

 39 40  0     0  0  0  0  0  0999 V2000
    4.9299  -28.7343   -9.3990 C   0  0  0  0  0  0  0  0  0  0  0  0
    5.9516  -27.9449   -8.9141 C   0  0  0  0  0  0  0  0  0  0  0  0
    7.0259  -29.8547   -9.0063 C   0  0  0  0  0  0  0  0  0  0  0  0
    6.2244  -25.6337   -9.8150 C   0  0  0  0  0  0  0  0  0  0  0  0
   13.7106  -27.3530  -11.6996 C   0  0  0  0  0  0  0  0  0  0  0  0
    9.7618  -26.4475   -9.8421 C   0  0  0  0  0  0  0  0  0  0  0  0
    9.0950  -25.1560  -11.9005 C   0  0  0  0  0  0  0  0  0  0  0  0
    8.6530  -25.7373   -9.0672 C   0  0  0  0  0  0  0  0  0  0  0  0
    8.0019  -24.4711  -11.0836 C   0  0  0  0  0  0  0  0  0  0  0  0
   10.2693  -25.5850  -11.0077 C   0  0  0  0  0  0  0  0  0  0  0  0
    8.1069  -30.8582   -8.8970 C   0  0  0  0  0  0  0  0  0  0  0  0
    5.8600  -26.4772   -8.6194 C   0  0  0  0  0  0  0  0  0  0  0  0
   12.5584  -26.6293  -10.9928 C   0  0  0  0  0  0  0  0  0  0  0  0
   11.3236  -26.3339  -11.8191 C   0  0  0  0  0  0  0  0  0  0  0  0
    7.1541  -28.5857   -8.6879 N   0  0  0  0  0  0  0  0  0  0  0  0
    7.5739  -25.3185   -9.9695 N   0  0  0  0  0  0  0  0  0  0  0  0
   14.7353  -27.5927  -11.0040 O   0  5  0  0  0  0  0  0  0  0  0  0
    5.3353  -25.2689  -10.5886 O   0  0  0  0  0  0  0  0  0  0  0  0
   13.4796  -27.6358  -12.9107 O   0  0  0  0  0  0  0  0  0  0  0  0
    5.4867  -30.3457   -9.5849 S   0  0  0  0  0  0  0  0  0  0  0  0
    3.9157  -28.4540   -9.6466 H   0  0  0  0  0  0  0  0  0  0  0  0
   10.5903  -26.6752   -9.1609 H   0  0  0  0  0  0  0  0  0  0  0  0
    9.3844  -27.4072  -10.2178 H   0  0  0  0  0  0  0  0  0  0  0  0
    8.6718  -26.0291  -12.4137 H   0  0  0  0  0  0  0  0  0  0  0  0
    9.4501  -24.4698  -12.6787 H   0  0  0  0  0  0  0  0  0  0  0  0
    8.2919  -26.3916   -8.2719 H   0  0  0  0  0  0  0  0  0  0  0  0
    9.0430  -24.8315   -8.5879 H   0  0  0  0  0  0  0  0  0  0  0  0
    8.3728  -23.5317  -10.6570 H   0  0  0  0  0  0  0  0  0  0  0  0
    7.1567  -24.2234  -11.7334 H   0  0  0  0  0  0  0  0  0  0  0  0
   10.7378  -24.6824  -10.5932 H   0  0  0  0  0  0  0  0  0  0  0  0
    8.1012  -31.3375   -7.9056 H   0  0  0  0  0  0  0  0  0  0  0  0
    8.0093  -31.6515   -9.6561 H   0  0  0  0  0  0  0  0  0  0  0  0
    9.1018  -30.4084   -9.0491 H   0  0  0  0  0  0  0  0  0  0  0  0
    4.8467  -26.2184   -8.3071 H   0  0  0  0  0  0  0  0  0  0  0  0
    6.5190  -26.2064   -7.7930 H   0  0  0  0  0  0  0  0  0  0  0  0
   12.9652  -25.6688  -10.6520 H   0  0  0  0  0  0  0  0  0  0  0  0
   12.2867  -27.1993  -10.0955 H   0  0  0  0  0  0  0  0  0  0  0  0
   10.8662  -27.2396  -12.2091 H   0  0  0  0  0  0  0  0  0  0  0  0
   11.5842  -25.6972  -12.6622 H   0  0  0  0  0  0  0  0  0  0  0  0
  1  2  2  0  0  0  0
  1 20  1  0  0  0  0
  2 12  1  0  0  0  0
  2 15  1  0  0  0  0
  3 11  1  0  0  0  0
  3 15  2  0  0  0  0
  3 20  1  0  0  0  0
  4 12  1  0  0  0  0
  4 16  1  0  0  0  0
  4 18  2  0  0  0  0
  5 13  1  0  0  0  0
  5 17  1  0  0  0  0
  5 19  2  0  0  0  0
  6  8  1  0  0  0  0
  6 10  1  0  0  0  0
  7  9  1  0  0  0  0
  7 10  1  0  0  0  0
  8 16  1  0  0  0  0
  9 16  1  0  0  0  0
 10 14  1  0  0  0  0
 13 14  1  0  0  0  0
  1 21  1  0  0  0  0
  6 22  1  0  0  0  0
  6 23  1  0  0  0  0
  7 24  1  0  0  0  0
  7 25  1  0  0  0  0
  8 26  1  0  0  0  0
  8 27  1  0  0  0  0
  9 28  1  0  0  0  0
  9 29  1  0  0  0  0
 10 30  1  0  0  0  0
 11 31  1  0  0  0  0
 11 32  1  0  0  0  0
 11 33  1  0  0  0  0
 12 34  1  0  0  0  0
 12 35  1  0  0  0  0
 13 36  1  0  0  0  0
 13 37  1  0  0  0  0
 14 38  1  0  0  0  0
 14 39  1  0  0  0  0
M  CHG  1  17  -1
M  END
> <Hybrid2>
-4.165177345275879

> <Hybrid2>
-3.836764

$$$$
C54295737
  -OEChem-02152218503D

 37 38  0     1  0  0  0  0  0999 V2000
    7.9597  -29.1496   -9.3604 C   0  0  0  0  0  0  0  0  0  0  0  0
    6.2000  -28.0707   -8.1259 C   0  0  0  0  0  0  0  0  0  0  0  0
    7.4928  -30.3569   -8.8659 C   0  0  0  0  0  0  0  0  0  0  0  0
    5.8118  -29.3262   -7.6869 C   0  0  0  0  0  0  0  0  0  0  0  0
    7.2954  -27.9894   -8.9785 C   0  0  0  0  0  0  0  0  0  0  0  0
    9.8721  -25.7068  -11.2165 C   0  0  0  0  0  0  0  0  0  0  0  0
   14.7190  -27.5319  -10.1145 C   0  0  0  0  0  0  0  0  0  0  0  0
   13.1313  -24.7907  -12.3536 C   0  0  0  0  0  0  0  0  0  0  0  0
   13.7801  -26.1364  -12.6811 C   0  0  0  0  0  0  0  0  0  0  0  0
   11.6426  -24.7991  -12.6866 C   0  0  0  0  0  0  0  0  0  0  0  0
   11.5297  -27.2470  -12.3804 C   0  0  0  0  0  0  0  0  0  0  0  0
   13.0286  -27.3209  -12.0512 C   0  0  2  0  0  0  0  0  0  0  0  0
    9.2379  -26.9241  -10.5925 C   0  0  0  0  0  0  0  0  0  0  0  0
   13.2586  -27.3978  -10.5391 C   0  0  0  0  0  0  0  0  0  0  0  0
    6.4323  -30.4755   -8.0360 N   0  0  0  0  0  0  0  0  0  0  0  0
   10.9701  -25.9304  -12.0464 N   0  0  0  0  0  0  0  0  0  0  0  0
   15.4876  -28.1551  -10.8968 O   0  5  0  0  0  0  0  0  0  0  0  0
    9.4061  -24.5914  -10.9705 O   0  0  0  0  0  0  0  0  0  0  0  0
   14.9778  -26.9851   -9.0032 O   0  0  0  0  0  0  0  0  0  0  0  0
    7.8417  -26.4161   -9.5745 S   0  0  0  0  0  0  0  0  0  0  0  0
    8.8180  -29.1302  -10.0240 H   0  0  0  0  0  0  0  0  0  0  0  0
    5.6550  -27.1891   -7.8041 H   0  0  0  0  0  0  0  0  0  0  0  0
    7.9756  -31.2910   -9.1337 H   0  0  0  0  0  0  0  0  0  0  0  0
    4.9633  -29.4437   -7.0209 H   0  0  0  0  0  0  0  0  0  0  0  0
   13.2709  -24.5657  -11.2902 H   0  0  0  0  0  0  0  0  0  0  0  0
   13.6303  -23.9936  -12.9184 H   0  0  0  0  0  0  0  0  0  0  0  0
   13.8268  -26.2608  -13.7757 H   0  0  0  0  0  0  0  0  0  0  0  0
   14.8261  -26.1278  -12.3293 H   0  0  0  0  0  0  0  0  0  0  0  0
   11.1621  -23.8832  -12.3210 H   0  0  0  0  0  0  0  0  0  0  0  0
   11.5070  -24.8267  -13.7729 H   0  0  0  0  0  0  0  0  0  0  0  0
   11.3729  -27.4962  -13.4352 H   0  0  0  0  0  0  0  0  0  0  0  0
   10.9674  -27.9906  -11.7964 H   0  0  0  0  0  0  0  0  0  0  0  0
   13.4259  -28.2541  -12.4940 H   0  0  0  0  0  0  0  0  0  0  0  0
    9.9789  -27.4326   -9.9825 H   0  0  0  0  0  0  0  0  0  0  0  0
    8.9048  -27.5931  -11.3807 H   0  0  0  0  0  0  0  0  0  0  0  0
   12.7053  -28.2553  -10.1473 H   0  0  0  0  0  0  0  0  0  0  0  0
   12.8469  -26.4958  -10.0790 H   0  0  0  0  0  0  0  0  0  0  0  0
  1  3  1  0  0  0  0
  1  5  2  0  0  0  0
  2  4  2  0  0  0  0
  2  5  1  0  0  0  0
  3 15  2  0  0  0  0
  4 15  1  0  0  0  0
  5 20  1  0  0  0  0
  6 13  1  0  0  0  0
  6 16  1  0  0  0  0
  6 18  2  0  0  0  0
  7 14  1  0  0  0  0
  7 17  1  0  0  0  0
  7 19  2  0  0  0  0
  8  9  1  0  0  0  0
  8 10  1  0  0  0  0
  9 12  1  0  0  0  0
 10 16  1  0  0  0  0
 11 12  1  0  0  0  0
 11 16  1  0  0  0  0
 12 14  1  0  0  0  0
 13 20  1  0  0  0  0
  1 21  1  0  0  0  0
  2 22  1  0  0  0  0
  3 23  1  0  0  0  0
  4 24  1  0  0  0  0
  8 25  1  0  0  0  0
  8 26  1  0  0  0  0
  9 27  1  0  0  0  0
  9 28  1  0  0  0  0
 10 29  1  0  0  0  0
 10 30  1  0  0  0  0
 11 31  1  0  0  0  0
 11 32  1  0  0  0  0
 12 33  1  0  0  0  0
 13 34  1  0  0  0  0
 13 35  1  0  0  0  0
 14 36  1  0  0  0  0
 14 37  1  0  0  0  0
M  CHG  1  17  -1
M  END
> <Hybrid2>
-4.6579813957214355

> <Hybrid2>
-4.657981

$$$$
C54295737
  -OEChem-02152218503D

 37 38  0     1  0  0  0  0  0999 V2000
   12.3056  -27.5724  -10.3379 C   0  0  0  0  0  0  0  0  0  0  0  0
   12.3568  -26.7288  -12.5896 C   0  0  0  0  0  0  0  0  0  0  0  0
   13.6904  -27.5276  -10.3470 C   0  0  0  0  0  0  0  0  0  0  0  0
   13.7393  -26.7216  -12.4979 C   0  0  0  0  0  0  0  0  0  0  0  0
   11.6336  -27.1637  -11.4845 C   0  0  0  0  0  0  0  0  0  0  0  0
    8.0127  -27.9368   -9.7096 C   0  0  0  0  0  0  0  0  0  0  0  0
    9.3713  -22.7405   -9.6893 C   0  0  0  0  0  0  0  0  0  0  0  0
    5.2358  -25.6917   -9.7487 C   0  0  0  0  0  0  0  0  0  0  0  0
    5.8549  -24.3490   -9.3606 C   0  0  0  0  0  0  0  0  0  0  0  0
    5.9075  -26.8435   -9.0078 C   0  0  0  0  0  0  0  0  0  0  0  0
    8.0050  -25.5551   -8.8129 C   0  0  0  0  0  0  0  0  0  0  0  0
    7.3789  -24.3667   -9.5568 C   0  0  2  0  0  0  0  0  0  0  0  0
    9.5058  -27.8250   -9.8882 C   0  0  0  0  0  0  0  0  0  0  0  0
    7.9994  -23.0505   -9.0952 C   0  0  0  0  0  0  0  0  0  0  0  0
   14.4272  -27.1112  -11.4012 N   0  0  0  0  0  0  0  0  0  0  0  0
    7.3574  -26.8136   -9.2061 N   0  0  0  0  0  0  0  0  0  0  0  0
    9.9047  -21.6467   -9.3572 O   0  5  0  0  0  0  0  0  0  0  0  0
    7.4471  -28.9908  -10.0118 O   0  0  0  0  0  0  0  0  0  0  0  0
    9.8089  -23.6451  -10.4579 O   0  0  0  0  0  0  0  0  0  0  0  0
    9.8658  -27.1971  -11.5374 S   0  0  0  0  0  0  0  0  0  0  0  0
   11.7794  -27.9182   -9.4541 H   0  0  0  0  0  0  0  0  0  0  0  0
   11.8703  -26.4022  -13.5030 H   0  0  0  0  0  0  0  0  0  0  0  0
   14.2621  -27.8352   -9.4776 H   0  0  0  0  0  0  0  0  0  0  0  0
   14.3493  -26.3909  -13.3320 H   0  0  0  0  0  0  0  0  0  0  0  0
    4.1641  -25.6810   -9.5212 H   0  0  0  0  0  0  0  0  0  0  0  0
    5.3329  -25.8439  -10.8307 H   0  0  0  0  0  0  0  0  0  0  0  0
    5.4067  -23.5521   -9.9656 H   0  0  0  0  0  0  0  0  0  0  0  0
    5.6145  -24.1291   -8.3126 H   0  0  0  0  0  0  0  0  0  0  0  0
    5.7229  -26.7664   -7.9297 H   0  0  0  0  0  0  0  0  0  0  0  0
    5.4857  -27.7957   -9.3444 H   0  0  0  0  0  0  0  0  0  0  0  0
    9.0808  -25.5794   -8.9976 H   0  0  0  0  0  0  0  0  0  0  0  0
    7.8687  -25.4501   -7.7293 H   0  0  0  0  0  0  0  0  0  0  0  0
    7.5904  -24.4802  -10.6287 H   0  0  0  0  0  0  0  0  0  0  0  0
    9.9497  -28.8077   -9.7579 H   0  0  0  0  0  0  0  0  0  0  0  0
    9.9031  -27.1513   -9.1344 H   0  0  0  0  0  0  0  0  0  0  0  0
    8.0922  -23.0739   -8.0063 H   0  0  0  0  0  0  0  0  0  0  0  0
    7.3185  -22.2358   -9.3552 H   0  0  0  0  0  0  0  0  0  0  0  0
  1  3  1  0  0  0  0
  1  5  2  0  0  0  0
  2  4  2  0  0  0  0
  2  5  1  0  0  0  0
  3 15  2  0  0  0  0
  4 15  1  0  0  0  0
  5 20  1  0  0  0  0
  6 13  1  0  0  0  0
  6 16  1  0  0  0  0
  6 18  2  0  0  0  0
  7 14  1  0  0  0  0
  7 17  1  0  0  0  0
  7 19  2  0  0  0  0
  8  9  1  0  0  0  0
  8 10  1  0  0  0  0
  9 12  1  0  0  0  0
 10 16  1  0  0  0  0
 11 12  1  0  0  0  0
 11 16  1  0  0  0  0
 12 14  1  0  0  0  0
 13 20  1  0  0  0  0
  1 21  1  0  0  0  0
  2 22  1  0  0  0  0
  3 23  1  0  0  0  0
  4 24  1  0  0  0  0
  8 25  1  0  0  0  0
  8 26  1  0  0  0  0
  9 27  1  0  0  0  0
  9 28  1  0  0  0  0
 10 29  1  0  0  0  0
 10 30  1  0  0  0  0
 11 31  1  0  0  0  0
 11 32  1  0  0  0  0
 12 33  1  0  0  0  0
 13 34  1  0  0  0  0
 13 35  1  0  0  0  0
 14 36  1  0  0  0  0
 14 37  1  0  0  0  0
M  CHG  1  17  -1
M  END
> <Hybrid2>
-4.6579813957214355

> <Hybrid2>
-3.452826

$$$$
C57570331
  -OEChem-02152218503D

 37 38  0     1  0  0  0  0  0999 V2000
    7.4110  -26.3882   -9.4906 C   0  0  0  0  0  0  0  0  0  0  0  0
    8.4526  -28.5679   -9.5278 C   0  0  0  0  0  0  0  0  0  0  0  0
    6.2623  -26.9467   -8.9301 C   0  0  0  0  0  0  0  0  0  0  0  0
    7.3039  -29.1263   -8.9672 C   0  0  0  0  0  0  0  0  0  0  0  0
    8.5062  -27.1988   -9.7895 C   0  0  0  0  0  0  0  0  0  0  0  0
    6.2088  -28.3157   -8.6683 C   0  0  0  0  0  0  0  0  0  0  0  0
    9.6872  -26.6247  -10.3660 C   0  0  0  0  0  0  0  0  0  0  0  0
   11.6392  -26.6467  -11.1439 C   0  0  0  0  0  0  0  0  0  0  0  0
   15.4382  -27.5304  -10.8195 C   0  0  0  0  0  0  0  0  0  0  0  0
    5.2449  -29.5429   -6.6888 C   0  0  0  0  0  0  0  0  0  0  0  0
    4.3160  -29.9477   -8.9971 C   0  0  0  0  0  0  0  0  0  0  0  0
   13.1616  -27.1167  -13.0818 C   0  0  0  0  0  0  0  0  0  0  0  0
   14.1611  -26.6800  -10.8078 C   0  0  0  0  0  0  0  0  0  0  0  0
    4.9805  -28.9128   -8.0694 C   0  0  0  0  0  0  0  0  0  0  0  0
   12.9606  -27.2666  -11.5693 C   0  0  1  0  0  0  0  0  0  0  0  0
    9.9580  -25.3827  -10.6930 N   0  0  0  0  0  0  0  0  0  0  0  0
   11.2421  -25.3972  -11.2049 N   0  0  0  0  0  0  0  0  0  0  0  0
   16.4023  -27.0338  -10.1692 O   0  5  0  0  0  0  0  0  0  0  0  0
   15.3867  -28.6040  -11.4807 O   0  0  0  0  0  0  0  0  0  0  0  0
   10.7065  -27.4897  -10.6222 O   0  0  0  0  0  0  0  0  0  0  0  0
    7.4372  -25.3194   -9.6890 H   0  0  0  0  0  0  0  0  0  0  0  0
    9.2982  -29.2129   -9.7548 H   0  0  0  0  0  0  0  0  0  0  0  0
    5.4137  -26.3077   -8.7008 H   0  0  0  0  0  0  0  0  0  0  0  0
    7.2714  -30.1940   -8.7667 H   0  0  0  0  0  0  0  0  0  0  0  0
    5.9897  -30.3440   -6.7472 H   0  0  0  0  0  0  0  0  0  0  0  0
    4.3309  -29.9694   -6.2613 H   0  0  0  0  0  0  0  0  0  0  0  0
    5.6212  -28.7877   -5.9897 H   0  0  0  0  0  0  0  0  0  0  0  0
    5.0086  -30.7692   -9.2117 H   0  0  0  0  0  0  0  0  0  0  0  0
    4.0219  -29.4990   -9.9522 H   0  0  0  0  0  0  0  0  0  0  0  0
    3.4174  -30.3787   -8.5421 H   0  0  0  0  0  0  0  0  0  0  0  0
   13.2092  -26.0587  -13.3614 H   0  0  0  0  0  0  0  0  0  0  0  0
   12.3451  -27.5753  -13.6505 H   0  0  0  0  0  0  0  0  0  0  0  0
   14.0973  -27.5890  -13.4017 H   0  0  0  0  0  0  0  0  0  0  0  0
   14.4353  -25.7166  -11.2579 H   0  0  0  0  0  0  0  0  0  0  0  0
   13.8887  -26.4664   -9.7664 H   0  0  0  0  0  0  0  0  0  0  0  0
    4.2225  -28.1238   -7.9029 H   0  0  0  0  0  0  0  0  0  0  0  0
   12.9224  -28.3446  -11.3624 H   0  0  0  0  0  0  0  0  0  0  0  0
  1  3  2  0  0  0  0
  1  5  1  0  0  0  0
  2  4  1  0  0  0  0
  2  5  2  0  0  0  0
  3  6  1  0  0  0  0
  4  6  2  0  0  0  0
  5  7  1  0  0  0  0
  6 14  1  0  0  0  0
  7 16  2  0  0  0  0
  7 20  1  0  0  0  0
  8 15  1  0  0  0  0
  8 17  2  0  0  0  0
  8 20  1  0  0  0  0
  9 13  1  0  0  0  0
  9 18  1  0  0  0  0
  9 19  2  0  0  0  0
 10 14  1  0  0  0  0
 11 14  1  0  0  0  0
 12 15  1  0  0  0  0
 13 15  1  0  0  0  0
 16 17  1  0  0  0  0
  1 21  1  0  0  0  0
  2 22  1  0  0  0  0
  3 23  1  0  0  0  0
  4 24  1  0  0  0  0
 10 25  1  0  0  0  0
 10 26  1  0  0  0  0
 10 27  1  0  0  0  0
 11 28  1  0  0  0  0
 11 29  1  0  0  0  0
 11 30  1  0  0  0  0
 12 31  1  0  0  0  0
 12 32  1  0  0  0  0
 12 33  1  0  0  0  0
 13 34  1  0  0  0  0
 13 35  1  0  0  0  0
 14 36  1  0  0  0  0
 15 37  1  0  0  0  0
M  CHG  1  18  -1
M  END
> <Hybrid2>
-4.495627403259277

> <Hybrid2>
-4.495627

$$$$
C57570331
  -OEChem-02152218503D

 37 38  0     1  0  0  0  0  0999 V2000
    8.1772  -26.2080   -9.5006 C   0  0  0  0  0  0  0  0  0  0  0  0
    8.8453  -28.4372  -10.1497 C   0  0  0  0  0  0  0  0  0  0  0  0
    6.9930  -26.7179   -8.9684 C   0  0  0  0  0  0  0  0  0  0  0  0
    7.6611  -28.9471   -9.6174 C   0  0  0  0  0  0  0  0  0  0  0  0
    9.1033  -27.0677  -10.0913 C   0  0  0  0  0  0  0  0  0  0  0  0
    6.7349  -28.0874   -9.0268 C   0  0  0  0  0  0  0  0  0  0  0  0
   10.3209  -26.5434  -10.6387 C   0  0  0  0  0  0  0  0  0  0  0  0
   12.1869  -26.6511  -11.5991 C   0  0  0  0  0  0  0  0  0  0  0  0
   14.0115  -28.7926  -10.2417 C   0  0  0  0  0  0  0  0  0  0  0  0
    4.2184  -28.0829   -9.1710 C   0  0  0  0  0  0  0  0  0  0  0  0
    5.3527  -28.3920   -6.9410 C   0  0  0  0  0  0  0  0  0  0  0  0
   13.9525  -26.4096  -13.3650 C   0  0  0  0  0  0  0  0  0  0  0  0
   14.4498  -27.7766  -11.3047 C   0  0  0  0  0  0  0  0  0  0  0  0
    5.4686  -28.6324   -8.4581 C   0  0  0  0  0  0  0  0  0  0  0  0
   13.3584  -27.3289  -12.2914 C   0  0  1  0  0  0  0  0  0  0  0  0
   10.7677  -25.3106  -10.6954 N   0  0  0  0  0  0  0  0  0  0  0  0
   11.9952  -25.3814  -11.3273 N   0  0  0  0  0  0  0  0  0  0  0  0
   14.6291  -28.6974   -9.1423 O   0  5  0  0  0  0  0  0  0  0  0  0
   13.1102  -29.6059  -10.5862 O   0  0  0  0  0  0  0  0  0  0  0  0
   11.1664  -27.4550  -11.1927 O   0  0  0  0  0  0  0  0  0  0  0  0
    8.3637  -25.1380   -9.4477 H   0  0  0  0  0  0  0  0  0  0  0  0
    9.5575  -29.1202  -10.6066 H   0  0  0  0  0  0  0  0  0  0  0  0
    6.2768  -26.0408   -8.5104 H   0  0  0  0  0  0  0  0  0  0  0  0
    7.4687  -30.0156   -9.6675 H   0  0  0  0  0  0  0  0  0  0  0  0
    4.1565  -26.9920   -9.0926 H   0  0  0  0  0  0  0  0  0  0  0  0
    3.2989  -28.4992   -8.7454 H   0  0  0  0  0  0  0  0  0  0  0  0
    4.2414  -28.3401  -10.2358 H   0  0  0  0  0  0  0  0  0  0  0  0
    5.3756  -27.3187   -6.7211 H   0  0  0  0  0  0  0  0  0  0  0  0
    6.1781  -28.8633   -6.3964 H   0  0  0  0  0  0  0  0  0  0  0  0
    4.4167  -28.7953   -6.5392 H   0  0  0  0  0  0  0  0  0  0  0  0
   14.3456  -25.4927  -12.9128 H   0  0  0  0  0  0  0  0  0  0  0  0
   13.2066  -26.1191  -14.1131 H   0  0  0  0  0  0  0  0  0  0  0  0
   14.7776  -26.9031  -13.8908 H   0  0  0  0  0  0  0  0  0  0  0  0
   15.2639  -28.2565  -11.8640 H   0  0  0  0  0  0  0  0  0  0  0  0
   14.8928  -26.9079  -10.8013 H   0  0  0  0  0  0  0  0  0  0  0  0
    5.4379  -29.7303   -8.5945 H   0  0  0  0  0  0  0  0  0  0  0  0
   12.9863  -28.2214  -12.8124 H   0  0  0  0  0  0  0  0  0  0  0  0
  1  3  2  0  0  0  0
  1  5  1  0  0  0  0
  2  4  1  0  0  0  0
  2  5  2  0  0  0  0
  3  6  1  0  0  0  0
  4  6  2  0  0  0  0
  5  7  1  0  0  0  0
  6 14  1  0  0  0  0
  7 16  2  0  0  0  0
  7 20  1  0  0  0  0
  8 15  1  0  0  0  0
  8 17  2  0  0  0  0
  8 20  1  0  0  0  0
  9 13  1  0  0  0  0
  9 18  1  0  0  0  0
  9 19  2  0  0  0  0
 10 14  1  0  0  0  0
 11 14  1  0  0  0  0
 12 15  1  0  0  0  0
 13 15  1  0  0  0  0
 16 17  1  0  0  0  0
  1 21  1  0  0  0  0
  2 22  1  0  0  0  0
  3 23  1  0  0  0  0
  4 24  1  0  0  0  0
 10 25  1  0  0  0  0
 10 26  1  0  0  0  0
 10 27  1  0  0  0  0
 11 28  1  0  0  0  0
 11 29  1  0  0  0  0
 11 30  1  0  0  0  0
 12 31  1  0  0  0  0
 12 32  1  0  0  0  0
 12 33  1  0  0  0  0
 13 34  1  0  0  0  0
 13 35  1  0  0  0  0
 14 36  1  0  0  0  0
 15 37  1  0  0  0  0
M  CHG  1  18  -1
M  END
> <Hybrid2>
-4.495627403259277

> <Hybrid2>
-2.571460

$$$$
C58235636
  -OEChem-02152218503D

 29 30  0     0  0  0  0  0  0999 V2000
   13.0279  -26.0697  -12.0331 C   0  0  0  0  0  0  0  0  0  0  0  0
   13.1443  -27.3766  -11.6080 C   0  0  0  0  0  0  0  0  0  0  0  0
   10.9891  -27.1184  -11.2942 C   0  0  0  0  0  0  0  0  0  0  0  0
    5.3103  -28.3526   -8.4222 C   0  0  0  0  0  0  0  0  0  0  0  0
    5.6820  -27.0706   -8.3298 C   0  0  0  0  0  0  0  0  0  0  0  0
    6.2410  -29.3643   -8.8439 C   0  0  0  0  0  0  0  0  0  0  0  0
    7.4973  -29.0225   -9.1499 C   0  0  0  0  0  0  0  0  0  0  0  0
    7.0818  -26.6707   -8.6694 C   0  0  0  0  0  0  0  0  0  0  0  0
   15.0903  -27.9870  -10.2177 C   0  0  0  0  0  0  0  0  0  0  0  0
   14.3929  -28.1635  -11.5718 C   0  0  0  0  0  0  0  0  0  0  0  0
    9.5553  -27.4115  -10.9262 C   0  0  0  0  0  0  0  0  0  0  0  0
    9.3130  -27.3995   -9.4189 C   0  0  0  0  0  0  0  0  0  0  0  0
   11.9763  -27.9794  -11.1835 N   0  0  0  0  0  0  0  0  0  0  0  0
    7.9313  -27.7097   -9.0719 N   0  0  0  0  0  0  0  0  0  0  0  0
   14.4404  -28.4079   -9.2192 O   0  5  0  0  0  0  0  0  0  0  0  0
    7.3973  -25.4853   -8.5781 O   0  0  0  0  0  0  0  0  0  0  0  0
   16.2304  -27.4441  -10.2668 O   0  0  0  0  0  0  0  0  0  0  0  0
   11.3939  -25.5655  -11.9021 S   0  0  0  0  0  0  0  0  0  0  0  0
   13.7968  -25.4063  -12.4033 H   0  0  0  0  0  0  0  0  0  0  0  0
    4.2985  -28.6576   -8.1795 H   0  0  0  0  0  0  0  0  0  0  0  0
    4.9916  -26.2984   -8.0123 H   0  0  0  0  0  0  0  0  0  0  0  0
    5.9038  -30.3922   -8.9049 H   0  0  0  0  0  0  0  0  0  0  0  0
    8.2232  -29.7612   -9.4709 H   0  0  0  0  0  0  0  0  0  0  0  0
   14.2049  -29.2404  -11.7439 H   0  0  0  0  0  0  0  0  0  0  0  0
   15.0892  -27.8655  -12.3786 H   0  0  0  0  0  0  0  0  0  0  0  0
    9.2872  -28.3966  -11.3287 H   0  0  0  0  0  0  0  0  0  0  0  0
    8.8907  -26.6920  -11.4213 H   0  0  0  0  0  0  0  0  0  0  0  0
    9.9376  -28.1569   -8.9347 H   0  0  0  0  0  0  0  0  0  0  0  0
    9.5536  -26.4262   -8.9787 H   0  0  0  0  0  0  0  0  0  0  0  0
  1  2  2  0  0  0  0
  1 18  1  0  0  0  0
  2 10  1  0  0  0  0
  2 13  1  0  0  0  0
  3 11  1  0  0  0  0
  3 13  2  0  0  0  0
  3 18  1  0  0  0  0
  4  5  2  0  0  0  0
  4  6  1  0  0  0  0
  5  8  1  0  0  0  0
  6  7  2  0  0  0  0
  7 14  1  0  0  0  0
  8 14  1  0  0  0  0
  8 16  2  0  0  0  0
  9 10  1  0  0  0  0
  9 15  1  0  0  0  0
  9 17  2  0  0  0  0
 11 12  1  0  0  0  0
 12 14  1  0  0  0  0
  1 19  1  0  0  0  0
  4 20  1  0  0  0  0
  5 21  1  0  0  0  0
  6 22  1  0  0  0  0
  7 23  1  0  0  0  0
 10 24  1  0  0  0  0
 10 25  1  0  0  0  0
 11 26  1  0  0  0  0
 11 27  1  0  0  0  0
 12 28  1  0  0  0  0
 12 29  1  0  0  0  0
M  CHG  1  15  -1
M  END
> <Hybrid2>
-3.597177028656006

> <Hybrid2>
-3.597177

$$$$
C58235636
  -OEChem-02152218503D

 29 30  0     0  0  0  0  0  0999 V2000
    5.6132  -25.9429  -10.1936 C   0  0  0  0  0  0  0  0  0  0  0  0
    6.2310  -26.7135   -9.2310 C   0  0  0  0  0  0  0  0  0  0  0  0
    8.0097  -26.1153  -10.3660 C   0  0  0  0  0  0  0  0  0  0  0  0
   14.0526  -26.8666  -12.5885 C   0  0  0  0  0  0  0  0  0  0  0  0
   13.1425  -26.7450  -13.5617 C   0  0  0  0  0  0  0  0  0  0  0  0
   13.6537  -27.1118  -11.2290 C   0  0  0  0  0  0  0  0  0  0  0  0
   12.3548  -27.2195  -10.9289 C   0  0  0  0  0  0  0  0  0  0  0  0
   11.6865  -26.8611  -13.2440 C   0  0  0  0  0  0  0  0  0  0  0  0
    5.1656  -28.8403   -8.5719 C   0  0  0  0  0  0  0  0  0  0  0  0
    5.5524  -27.4242   -8.1291 C   0  0  0  0  0  0  0  0  0  0  0  0
    9.4497  -25.9830  -10.7972 C   0  0  0  0  0  0  0  0  0  0  0  0
    9.9746  -27.2270  -11.5099 C   0  0  0  0  0  0  0  0  0  0  0  0
    7.6051  -26.8139   -9.3285 N   0  0  0  0  0  0  0  0  0  0  0  0
   11.3739  -27.1001  -11.8992 N   0  0  0  0  0  0  0  0  0  0  0  0
    6.1351  -29.5957   -8.8651 O   0  5  0  0  0  0  0  0  0  0  0  0
   10.8702  -26.7432  -14.1565 O   0  0  0  0  0  0  0  0  0  0  0  0
    3.9247  -29.0787   -8.5873 O   0  0  0  0  0  0  0  0  0  0  0  0
    6.7911  -25.3119  -11.2686 S   0  0  0  0  0  0  0  0  0  0  0  0
    4.5615  -25.7249  -10.3154 H   0  0  0  0  0  0  0  0  0  0  0  0
   15.1120  -26.7844  -12.8037 H   0  0  0  0  0  0  0  0  0  0  0  0
   13.4291  -26.5614  -14.5904 H   0  0  0  0  0  0  0  0  0  0  0  0
   14.4195  -27.2064  -10.4682 H   0  0  0  0  0  0  0  0  0  0  0  0
   12.0213  -27.4043   -9.9139 H   0  0  0  0  0  0  0  0  0  0  0  0
    6.1908  -27.4891   -7.2274 H   0  0  0  0  0  0  0  0  0  0  0  0
    4.6434  -26.8893   -7.7942 H   0  0  0  0  0  0  0  0  0  0  0  0
   10.0627  -25.7888   -9.9080 H   0  0  0  0  0  0  0  0  0  0  0  0
    9.5646  -25.1019  -11.4414 H   0  0  0  0  0  0  0  0  0  0  0  0
    9.9094  -28.0935  -10.8443 H   0  0  0  0  0  0  0  0  0  0  0  0
    9.3987  -27.4474  -12.4147 H   0  0  0  0  0  0  0  0  0  0  0  0
  1  2  2  0  0  0  0
  1 18  1  0  0  0  0
  2 10  1  0  0  0  0
  2 13  1  0  0  0  0
  3 11  1  0  0  0  0
  3 13  2  0  0  0  0
  3 18  1  0  0  0  0
  4  5  2  0  0  0  0
  4  6  1  0  0  0  0
  5  8  1  0  0  0  0
  6  7  2  0  0  0  0
  7 14  1  0  0  0  0
  8 14  1  0  0  0  0
  8 16  2  0  0  0  0
  9 10  1  0  0  0  0
  9 15  1  0  0  0  0
  9 17  2  0  0  0  0
 11 12  1  0  0  0  0
 12 14  1  0  0  0  0
  1 19  1  0  0  0  0
  4 20  1  0  0  0  0
  5 21  1  0  0  0  0
  6 22  1  0  0  0  0
  7 23  1  0  0  0  0
 10 24  1  0  0  0  0
 10 25  1  0  0  0  0
 11 26  1  0  0  0  0
 11 27  1  0  0  0  0
 12 28  1  0  0  0  0
 12 29  1  0  0  0  0
M  CHG  1  15  -1
M  END
> <Hybrid2>
-3.597177028656006

> <Hybrid2>
-2.975981

$$$$
C61175082
  -OEChem-02152218503D

 50 50  0     0  0  0  0  0  0999 V2000
   11.1305  -25.2229  -12.7891 C   0  0  0  0  0  0  0  0  0  0  0  0
   11.4110  -26.6650  -10.3560 C   0  0  0  0  0  0  0  0  0  0  0  0
    7.3204  -27.9324  -10.9323 C   0  0  0  0  0  0  0  0  0  0  0  0
    7.0994  -26.9452   -8.6171 C   0  0  0  0  0  0  0  0  0  0  0  0
    8.7580  -27.4217  -11.0145 C   0  0  0  0  0  0  0  0  0  0  0  0
    8.5370  -26.4338   -8.6963 C   0  0  0  0  0  0  0  0  0  0  0  0
    6.8516  -28.1822   -9.4919 C   0  0  0  0  0  0  0  0  0  0  0  0
    8.9701  -26.1815  -10.1425 C   0  0  0  0  0  0  0  0  0  0  0  0
    7.2119  -30.6487   -9.7173 C   0  0  0  0  0  0  0  0  0  0  0  0
   14.2095  -27.8896  -11.6064 C   0  0  0  0  0  0  0  0  0  0  0  0
   13.5594  -25.4374  -13.1140 C   0  0  0  0  0  0  0  0  0  0  0  0
   12.7529  -23.8101  -11.3915 C   0  0  0  0  0  0  0  0  0  0  0  0
   10.5733  -24.3124  -10.0686 C   0  0  0  0  0  0  0  0  0  0  0  0
    7.4993  -29.4352   -8.8957 C   0  0  0  0  0  0  0  0  0  0  0  0
   13.8901  -26.7215  -10.7369 C   0  0  0  0  0  0  0  0  0  0  0  0
   12.4932  -25.1676  -12.0470 C   0  0  0  0  0  0  0  0  0  0  0  0
   10.3477  -25.7519  -10.1942 N   0  0  0  0  0  0  0  0  0  0  0  0
   12.5549  -26.2010  -11.0226 N   0  0  0  0  0  0  0  0  0  0  0  0
   10.7084  -24.1306  -13.2632 O   0  5  0  0  0  0  0  0  0  0  0  0
   10.5880  -26.3661  -12.8325 O   0  0  0  0  0  0  0  0  0  0  0  0
   11.3398  -27.8269   -9.9343 O   0  0  0  0  0  0  0  0  0  0  0  0
    6.6523  -27.2005  -11.4167 H   0  0  0  0  0  0  0  0  0  0  0  0
    7.2270  -28.8604  -11.5224 H   0  0  0  0  0  0  0  0  0  0  0  0
    6.8529  -27.1761   -7.5670 H   0  0  0  0  0  0  0  0  0  0  0  0
    6.4134  -26.1359   -8.9167 H   0  0  0  0  0  0  0  0  0  0  0  0
    9.4527  -28.2156  -10.7292 H   0  0  0  0  0  0  0  0  0  0  0  0
    8.9829  -27.1640  -12.0540 H   0  0  0  0  0  0  0  0  0  0  0  0
    8.6068  -25.4949   -8.1409 H   0  0  0  0  0  0  0  0  0  0  0  0
    9.2120  -27.1407   -8.2097 H   0  0  0  0  0  0  0  0  0  0  0  0
    5.7555  -28.3576   -9.5217 H   0  0  0  0  0  0  0  0  0  0  0  0
    8.3852  -25.3508  -10.5525 H   0  0  0  0  0  0  0  0  0  0  0  0
    6.1280  -30.8012   -9.7809 H   0  0  0  0  0  0  0  0  0  0  0  0
    7.6544  -31.5418   -9.2636 H   0  0  0  0  0  0  0  0  0  0  0  0
    7.5987  -30.5320  -10.7352 H   0  0  0  0  0  0  0  0  0  0  0  0
   14.1664  -27.5840  -12.6623 H   0  0  0  0  0  0  0  0  0  0  0  0
   15.2199  -28.2558  -11.3718 H   0  0  0  0  0  0  0  0  0  0  0  0
   13.4781  -28.6913  -11.4267 H   0  0  0  0  0  0  0  0  0  0  0  0
   14.5680  -25.4193  -12.6854 H   0  0  0  0  0  0  0  0  0  0  0  0
   13.5278  -24.6935  -13.9189 H   0  0  0  0  0  0  0  0  0  0  0  0
   13.4101  -26.4179  -13.5813 H   0  0  0  0  0  0  0  0  0  0  0  0
   13.7203  -23.7992  -10.8754 H   0  0  0  0  0  0  0  0  0  0  0  0
   11.9795  -23.5596  -10.6566 H   0  0  0  0  0  0  0  0  0  0  0  0
   12.7757  -23.0075  -12.1381 H   0  0  0  0  0  0  0  0  0  0  0  0
   10.5599  -23.8502  -11.0667 H   0  0  0  0  0  0  0  0  0  0  0  0
    9.7796  -23.8697   -9.4490 H   0  0  0  0  0  0  0  0  0  0  0  0
   11.5503  -24.1344   -9.5954 H   0  0  0  0  0  0  0  0  0  0  0  0
    8.5798  -29.2825   -8.8320 H   0  0  0  0  0  0  0  0  0  0  0  0
    7.1236  -29.5822   -7.8800 H   0  0  0  0  0  0  0  0  0  0  0  0
   13.9353  -27.0351   -9.6835 H   0  0  0  0  0  0  0  0  0  0  0  0
   14.6306  -25.9279  -10.9153 H   0  0  0  0  0  0  0  0  0  0  0  0
  1 16  1  0  0  0  0
  1 19  1  0  0  0  0
  1 20  2  0  0  0  0
  2 17  1  0  0  0  0
  2 18  1  0  0  0  0
  2 21  2  0  0  0  0
  3  5  1  0  0  0  0
  3  7  1  0  0  0  0
  4  6  1  0  0  0  0
  4  7  1  0  0  0  0
  5  8  1  0  0  0  0
  6  8  1  0  0  0  0
  7 14  1  0  0  0  0
  8 17  1  0  0  0  0
  9 14  1  0  0  0  0
 10 15  1  0  0  0  0
 11 16  1  0  0  0  0
 12 16  1  0  0  0  0
 13 17  1  0  0  0  0
 15 18  1  0  0  0  0
 16 18  1  0  0  0  0
  3 22  1  0  0  0  0
  3 23  1  0  0  0  0
  4 24  1  0  0  0  0
  4 25  1  0  0  0  0
  5 26  1  0  0  0  0
  5 27  1  0  0  0  0
  6 28  1  0  0  0  0
  6 29  1  0  0  0  0
  7 30  1  0  0  0  0
  8 31  1  0  0  0  0
  9 32  1  0  0  0  0
  9 33  1  0  0  0  0
  9 34  1  0  0  0  0
 10 35  1  0  0  0  0
 10 36  1  0  0  0  0
 10 37  1  0  0  0  0
 11 38  1  0  0  0  0
 11 39  1  0  0  0  0
 11 40  1  0  0  0  0
 12 41  1  0  0  0  0
 12 42  1  0  0  0  0
 12 43  1  0  0  0  0
 13 44  1  0  0  0  0
 13 45  1  0  0  0  0
 13 46  1  0  0  0  0
 14 47  1  0  0  0  0
 14 48  1  0  0  0  0
 15 49  1  0  0  0  0
 15 50  1  0  0  0  0
M  CHG  1  19  -1
M  END
> <Hybrid2>
-2.8760461807250977

> <Hybrid2>
-2.876046

$$$$
C61175082
  -OEChem-02152218503D

 50 50  0     0  0  0  0  0  0999 V2000
   10.0887  -26.6450  -12.0519 C   0  0  0  0  0  0  0  0  0  0  0  0
   10.0418  -26.9655   -9.2282 C   0  0  0  0  0  0  0  0  0  0  0  0
    6.3423  -29.1263   -9.7905 C   0  0  0  0  0  0  0  0  0  0  0  0
    5.5339  -27.3940   -8.1386 C   0  0  0  0  0  0  0  0  0  0  0  0
    7.6926  -28.4165   -9.8764 C   0  0  0  0  0  0  0  0  0  0  0  0
    6.8834  -26.6825   -8.2219 C   0  0  0  0  0  0  0  0  0  0  0  0
    5.6238  -28.8938   -8.4539 C   0  0  0  0  0  0  0  0  0  0  0  0
    7.5682  -26.9219   -9.5698 C   0  0  0  0  0  0  0  0  0  0  0  0
    6.3228  -31.1386   -7.5960 C   0  0  0  0  0  0  0  0  0  0  0  0
   13.1654  -28.0049   -9.4684 C   0  0  0  0  0  0  0  0  0  0  0  0
   12.5403  -26.4903  -11.9228 C   0  0  0  0  0  0  0  0  0  0  0  0
   11.2056  -24.5195  -11.1482 C   0  0  0  0  0  0  0  0  0  0  0  0
    8.8805  -24.8928  -10.0493 C   0  0  0  0  0  0  0  0  0  0  0  0
    6.2852  -29.6727   -7.3134 C   0  0  0  0  0  0  0  0  0  0  0  0
   12.5342  -26.6797   -9.2074 C   0  0  0  0  0  0  0  0  0  0  0  0
   11.2539  -26.0468  -11.2181 C   0  0  0  0  0  0  0  0  0  0  0  0
    8.8639  -26.2854   -9.6031 N   0  0  0  0  0  0  0  0  0  0  0  0
   11.2318  -26.5780   -9.8622 N   0  0  0  0  0  0  0  0  0  0  0  0
    9.6413  -25.9208  -12.9854 O   0  5  0  0  0  0  0  0  0  0  0  0
    9.7111  -27.8001  -11.6967 O   0  0  0  0  0  0  0  0  0  0  0  0
   10.0294  -27.8685   -8.3812 O   0  0  0  0  0  0  0  0  0  0  0  0
    5.7024  -28.7796  -10.6193 H   0  0  0  0  0  0  0  0  0  0  0  0
    6.4860  -30.2082   -9.9548 H   0  0  0  0  0  0  0  0  0  0  0  0
    5.1086  -27.2500   -7.1310 H   0  0  0  0  0  0  0  0  0  0  0  0
    4.8293  -26.9103   -8.8349 H   0  0  0  0  0  0  0  0  0  0  0  0
    8.4066  -28.8900   -9.1980 H   0  0  0  0  0  0  0  0  0  0  0  0
    8.0914  -28.5364  -10.8883 H   0  0  0  0  0  0  0  0  0  0  0  0
    6.7225  -25.6085   -8.0967 H   0  0  0  0  0  0  0  0  0  0  0  0
    7.5266  -27.0044   -7.4005 H   0  0  0  0  0  0  0  0  0  0  0  0
    4.5869  -29.2768   -8.5596 H   0  0  0  0  0  0  0  0  0  0  0  0
    6.9817  -26.4413  -10.3605 H   0  0  0  0  0  0  0  0  0  0  0  0
    5.3018  -31.5115   -7.7398 H   0  0  0  0  0  0  0  0  0  0  0  0
    6.7697  -31.6867   -6.7597 H   0  0  0  0  0  0  0  0  0  0  0  0
    6.8919  -31.3462   -8.5083 H   0  0  0  0  0  0  0  0  0  0  0  0
   13.3014  -28.1399  -10.5516 H   0  0  0  0  0  0  0  0  0  0  0  0
   14.1439  -28.0498   -8.9677 H   0  0  0  0  0  0  0  0  0  0  0  0
   12.5169  -28.8031   -9.0782 H   0  0  0  0  0  0  0  0  0  0  0  0
   13.4302  -26.1144  -11.4051 H   0  0  0  0  0  0  0  0  0  0  0  0
   12.5825  -26.1312  -12.9579 H   0  0  0  0  0  0  0  0  0  0  0  0
   12.6112  -27.5837  -11.9625 H   0  0  0  0  0  0  0  0  0  0  0  0
   12.0385  -24.1247  -10.5543 H   0  0  0  0  0  0  0  0  0  0  0  0
   10.2737  -24.1633  -10.6948 H   0  0  0  0  0  0  0  0  0  0  0  0
   11.2814  -24.0746  -12.1474 H   0  0  0  0  0  0  0  0  0  0  0  0
    9.0144  -24.8584  -11.1406 H   0  0  0  0  0  0  0  0  0  0  0  0
    7.9288  -24.4107   -9.7813 H   0  0  0  0  0  0  0  0  0  0  0  0
    9.7109  -24.3614   -9.5612 H   0  0  0  0  0  0  0  0  0  0  0  0
    7.3027  -29.3002   -7.1700 H   0  0  0  0  0  0  0  0  0  0  0  0
    5.7311  -29.4912   -6.3890 H   0  0  0  0  0  0  0  0  0  0  0  0
   12.4017  -26.5525   -8.1229 H   0  0  0  0  0  0  0  0  0  0  0  0
   13.1923  -25.8866   -9.5919 H   0  0  0  0  0  0  0  0  0  0  0  0
  1 16  1  0  0  0  0
  1 19  1  0  0  0  0
  1 20  2  0  0  0  0
  2 17  1  0  0  0  0
  2 18  1  0  0  0  0
  2 21  2  0  0  0  0
  3  5  1  0  0  0  0
  3  7  1  0  0  0  0
  4  6  1  0  0  0  0
  4  7  1  0  0  0  0
  5  8  1  0  0  0  0
  6  8  1  0  0  0  0
  7 14  1  0  0  0  0
  8 17  1  0  0  0  0
  9 14  1  0  0  0  0
 10 15  1  0  0  0  0
 11 16  1  0  0  0  0
 12 16  1  0  0  0  0
 13 17  1  0  0  0  0
 15 18  1  0  0  0  0
 16 18  1  0  0  0  0
  3 22  1  0  0  0  0
  3 23  1  0  0  0  0
  4 24  1  0  0  0  0
  4 25  1  0  0  0  0
  5 26  1  0  0  0  0
  5 27  1  0  0  0  0
  6 28  1  0  0  0  0
  6 29  1  0  0  0  0
  7 30  1  0  0  0  0
  8 31  1  0  0  0  0
  9 32  1  0  0  0  0
  9 33  1  0  0  0  0
  9 34  1  0  0  0  0
 10 35  1  0  0  0  0
 10 36  1  0  0  0  0
 10 37  1  0  0  0  0
 11 38  1  0  0  0  0
 11 39  1  0  0  0  0
 11 40  1  0  0  0  0
 12 41  1  0  0  0  0
 12 42  1  0  0  0  0
 12 43  1  0  0  0  0
 13 44  1  0  0  0  0
 13 45  1  0  0  0  0
 13 46  1  0  0  0  0
 14 47  1  0  0  0  0
 14 48  1  0  0  0  0
 15 49  1  0  0  0  0
 15 50  1  0  0  0  0
M  CHG  1  19  -1
M  END
> <Hybrid2>
-2.8760461807250977

> <Hybrid2>
-2.711442

$$$$
C61827341
  -OEChem-02152218503D

 38 38  0     0  0  0  0  0  0999 V2000
   11.9174  -27.1692  -12.4598 C   0  0  0  0  0  0  0  0  0  0  0  0
   11.9105  -26.7041  -11.1614 C   0  0  0  0  0  0  0  0  0  0  0  0
   13.9339  -27.5494  -11.1981 C   0  0  0  0  0  0  0  0  0  0  0  0
    9.0113  -27.6631  -10.0112 C   0  0  0  0  0  0  0  0  0  0  0  0
    5.2896  -27.7734   -9.0804 C   0  0  0  0  0  0  0  0  0  0  0  0
   15.2894  -27.9530  -10.7651 C   0  0  0  0  0  0  0  0  0  0  0  0
    7.7997  -30.4458  -10.5076 C   0  0  0  0  0  0  0  0  0  0  0  0
    6.7255  -30.3922   -8.2682 C   0  0  0  0  0  0  0  0  0  0  0  0
   10.5672  -26.8256   -8.1795 C   0  0  0  0  0  0  0  0  0  0  0  0
   10.7696  -25.9960  -10.4898 C   0  0  0  0  0  0  0  0  0  0  0  0
    8.3499  -28.5606   -8.9643 C   0  0  0  0  0  0  0  0  0  0  0  0
    5.9914  -28.7527  -10.0267 C   0  0  0  0  0  0  0  0  0  0  0  0
    7.2074  -29.5026   -9.4336 C   0  0  0  0  0  0  0  0  0  0  0  0
   13.0658  -26.9216  -10.4363 N   0  0  0  0  0  0  0  0  0  0  0  0
   10.0659  -26.8625   -9.5518 N   0  0  0  0  0  0  0  0  0  0  0  0
    5.9993  -26.8052   -8.6875 O   0  5  0  0  0  0  0  0  0  0  0  0
    8.6282  -27.6548  -11.1823 O   0  0  0  0  0  0  0  0  0  0  0  0
    4.0958  -28.0678   -8.7914 O   0  0  0  0  0  0  0  0  0  0  0  0
   13.4273  -27.9089  -12.7979 S   0  0  0  0  0  0  0  0  0  0  0  0
   11.1358  -27.1127  -13.2043 H   0  0  0  0  0  0  0  0  0  0  0  0
   15.2791  -28.9640  -10.3286 H   0  0  0  0  0  0  0  0  0  0  0  0
   16.0050  -27.9544  -11.6034 H   0  0  0  0  0  0  0  0  0  0  0  0
   15.7017  -27.2634  -10.0103 H   0  0  0  0  0  0  0  0  0  0  0  0
    8.1659  -29.8826  -11.3734 H   0  0  0  0  0  0  0  0  0  0  0  0
    8.6345  -31.0347  -10.1132 H   0  0  0  0  0  0  0  0  0  0  0  0
    7.0452  -31.1542  -10.8690 H   0  0  0  0  0  0  0  0  0  0  0  0
    6.2909  -29.7851   -7.4653 H   0  0  0  0  0  0  0  0  0  0  0  0
    5.9563  -31.0984   -8.6009 H   0  0  0  0  0  0  0  0  0  0  0  0
    7.5405  -30.9724   -7.8259 H   0  0  0  0  0  0  0  0  0  0  0  0
   11.3656  -27.5728   -8.0600 H   0  0  0  0  0  0  0  0  0  0  0  0
   10.9669  -25.8241   -7.9621 H   0  0  0  0  0  0  0  0  0  0  0  0
    9.7462  -27.0518   -7.4832 H   0  0  0  0  0  0  0  0  0  0  0  0
   11.1299  -25.1219   -9.9364 H   0  0  0  0  0  0  0  0  0  0  0  0
   10.0417  -25.6378  -11.2254 H   0  0  0  0  0  0  0  0  0  0  0  0
    7.9514  -27.8988   -8.1838 H   0  0  0  0  0  0  0  0  0  0  0  0
    9.1398  -29.1693   -8.5068 H   0  0  0  0  0  0  0  0  0  0  0  0
    6.3069  -28.1898  -10.9165 H   0  0  0  0  0  0  0  0  0  0  0  0
    5.2394  -29.4607  -10.3950 H   0  0  0  0  0  0  0  0  0  0  0  0
  1  2  2  0  0  0  0
  1 19  1  0  0  0  0
  2 10  1  0  0  0  0
  2 14  1  0  0  0  0
  3  6  1  0  0  0  0
  3 14  2  0  0  0  0
  3 19  1  0  0  0  0
  4 11  1  0  0  0  0
  4 15  1  0  0  0  0
  4 17  2  0  0  0  0
  5 12  1  0  0  0  0
  5 16  1  0  0  0  0
  5 18  2  0  0  0  0
  7 13  1  0  0  0  0
  8 13  1  0  0  0  0
  9 15  1  0  0  0  0
 10 15  1  0  0  0  0
 11 13  1  0  0  0  0
 12 13  1  0  0  0  0
  1 20  1  0  0  0  0
  6 21  1  0  0  0  0
  6 22  1  0  0  0  0
  6 23  1  0  0  0  0
  7 24  1  0  0  0  0
  7 25  1  0  0  0  0
  7 26  1  0  0  0  0
  8 27  1  0  0  0  0
  8 28  1  0  0  0  0
  8 29  1  0  0  0  0
  9 30  1  0  0  0  0
  9 31  1  0  0  0  0
  9 32  1  0  0  0  0
 10 33  1  0  0  0  0
 10 34  1  0  0  0  0
 11 35  1  0  0  0  0
 11 36  1  0  0  0  0
 12 37  1  0  0  0  0
 12 38  1  0  0  0  0
M  CHG  1  16  -1
M  END
> <Hybrid2>
-4.060746192932129

> <Hybrid2>
-4.060746

$$$$
C61827341
  -OEChem-02152218503D

 38 38  0     0  0  0  0  0  0999 V2000
   12.1076  -26.5686  -13.5103 C   0  0  0  0  0  0  0  0  0  0  0  0
   11.4361  -26.5136  -12.3069 C   0  0  0  0  0  0  0  0  0  0  0  0
   13.4070  -27.1167  -11.5574 C   0  0  0  0  0  0  0  0  0  0  0  0
    8.9236  -27.6968  -10.5256 C   0  0  0  0  0  0  0  0  0  0  0  0
    5.9271  -27.4290   -8.8046 C   0  0  0  0  0  0  0  0  0  0  0  0
   14.4931  -27.5024  -10.6303 C   0  0  0  0  0  0  0  0  0  0  0  0
    6.7683  -30.5928   -8.9707 C   0  0  0  0  0  0  0  0  0  0  0  0
    8.9663  -29.7884   -8.1383 C   0  0  0  0  0  0  0  0  0  0  0  0
    8.6231  -27.9807  -13.0368 C   0  0  0  0  0  0  0  0  0  0  0  0
    9.9916  -26.1471  -12.1248 C   0  0  0  0  0  0  0  0  0  0  0  0
    8.0203  -28.9161  -10.3342 C   0  0  0  0  0  0  0  0  0  0  0  0
    6.9788  -28.2515   -8.0535 C   0  0  0  0  0  0  0  0  0  0  0  0
    7.6861  -29.3506   -8.8808 C   0  0  0  0  0  0  0  0  0  0  0  0
   12.1795  -26.8280  -11.1860 N   0  0  0  0  0  0  0  0  0  0  0  0
    9.1624  -27.3152  -11.8528 N   0  0  0  0  0  0  0  0  0  0  0  0
    4.9346  -28.0855   -9.2282 O   0  5  0  0  0  0  0  0  0  0  0  0
    9.4050  -27.0984   -9.5620 O   0  0  0  0  0  0  0  0  0  0  0  0
    6.1935  -26.2006   -8.9281 O   0  0  0  0  0  0  0  0  0  0  0  0
   13.7371  -27.0298  -13.2393 S   0  0  0  0  0  0  0  0  0  0  0  0
   11.7347  -26.3666  -14.5045 H   0  0  0  0  0  0  0  0  0  0  0  0
   14.5190  -28.5937  -10.4857 H   0  0  0  0  0  0  0  0  0  0  0  0
   15.4817  -27.1874  -11.0021 H   0  0  0  0  0  0  0  0  0  0  0  0
   14.3736  -27.0331   -9.6400 H   0  0  0  0  0  0  0  0  0  0  0  0
    5.8318  -30.3589   -9.4894 H   0  0  0  0  0  0  0  0  0  0  0  0
    7.2522  -31.4157   -9.5074 H   0  0  0  0  0  0  0  0  0  0  0  0
    6.5094  -30.9645   -7.9724 H   0  0  0  0  0  0  0  0  0  0  0  0
    9.6671  -28.9511   -8.0380 H   0  0  0  0  0  0  0  0  0  0  0  0
    8.7355  -30.1478   -7.1290 H   0  0  0  0  0  0  0  0  0  0  0  0
    9.4961  -30.5885   -8.6631 H   0  0  0  0  0  0  0  0  0  0  0  0
    7.6575  -27.5271  -13.3052 H   0  0  0  0  0  0  0  0  0  0  0  0
    9.3271  -27.8663  -13.8742 H   0  0  0  0  0  0  0  0  0  0  0  0
    8.4788  -29.0499  -12.8225 H   0  0  0  0  0  0  0  0  0  0  0  0
    9.8729  -25.4476  -11.2902 H   0  0  0  0  0  0  0  0  0  0  0  0
    9.5949  -25.6561  -13.0197 H   0  0  0  0  0  0  0  0  0  0  0  0
    8.5107  -29.7580  -10.8408 H   0  0  0  0  0  0  0  0  0  0  0  0
    7.0809  -28.7159  -10.8645 H   0  0  0  0  0  0  0  0  0  0  0  0
    6.4870  -28.7081   -7.1830 H   0  0  0  0  0  0  0  0  0  0  0  0
    7.7098  -27.5535   -7.6283 H   0  0  0  0  0  0  0  0  0  0  0  0
  1  2  2  0  0  0  0
  1 19  1  0  0  0  0
  2 10  1  0  0  0  0
  2 14  1  0  0  0  0
  3  6  1  0  0  0  0
  3 14  2  0  0  0  0
  3 19  1  0  0  0  0
  4 11  1  0  0  0  0
  4 15  1  0  0  0  0
  4 17  2  0  0  0  0
  5 12  1  0  0  0  0
  5 16  1  0  0  0  0
  5 18  2  0  0  0  0
  7 13  1  0  0  0  0
  8 13  1  0  0  0  0
  9 15  1  0  0  0  0
 10 15  1  0  0  0  0
 11 13  1  0  0  0  0
 12 13  1  0  0  0  0
  1 20  1  0  0  0  0
  6 21  1  0  0  0  0
  6 22  1  0  0  0  0
  6 23  1  0  0  0  0
  7 24  1  0  0  0  0
  7 25  1  0  0  0  0
  7 26  1  0  0  0  0
  8 27  1  0  0  0  0
  8 28  1  0  0  0  0
  8 29  1  0  0  0  0
  9 30  1  0  0  0  0
  9 31  1  0  0  0  0
  9 32  1  0  0  0  0
 10 33  1  0  0  0  0
 10 34  1  0  0  0  0
 11 35  1  0  0  0  0
 11 36  1  0  0  0  0
 12 37  1  0  0  0  0
 12 38  1  0  0  0  0
M  CHG  1  16  -1
M  END
> <Hybrid2>
-4.060746192932129

> <Hybrid2>
-2.896982

$$$$
C61828337
  -OEChem-02152218503D

 44 44  0     0  0  0  0  0  0999 V2000
    7.0708  -26.5906   -9.3374 C   0  0  0  0  0  0  0  0  0  0  0  0
    8.1200  -28.8286   -9.7757 C   0  0  0  0  0  0  0  0  0  0  0  0
    8.9986  -25.3642  -10.9161 C   0  0  0  0  0  0  0  0  0  0  0  0
    5.8268  -27.2909   -8.8401 C   0  0  0  0  0  0  0  0  0  0  0  0
    6.8575  -29.4932   -9.2736 C   0  0  0  0  0  0  0  0  0  0  0  0
    6.1005  -28.6671   -8.2340 C   0  0  0  0  0  0  0  0  0  0  0  0
    6.8965  -28.5527   -6.9208 C   0  0  0  0  0  0  0  0  0  0  0  0
    4.7587  -29.3559   -7.9241 C   0  0  0  0  0  0  0  0  0  0  0  0
   11.9320  -27.4633   -7.4309 C   0  0  0  0  0  0  0  0  0  0  0  0
   12.2527  -26.3457  -11.5423 C   0  0  0  0  0  0  0  0  0  0  0  0
   11.0354  -27.7639   -8.6232 C   0  0  0  0  0  0  0  0  0  0  0  0
   11.0486  -26.9480  -12.2465 C   0  0  0  0  0  0  0  0  0  0  0  0
   10.2799  -26.5077   -9.0819 C   0  0  0  0  0  0  0  0  0  0  0  0
   10.0268  -27.6285  -11.3209 C   0  0  0  0  0  0  0  0  0  0  0  0
    9.3104  -26.7416  -10.2703 C   0  0  0  0  0  0  0  0  0  0  0  0
    8.1192  -27.4225   -9.7732 N   0  0  0  0  0  0  0  0  0  0  0  0
    8.2164  -25.3907  -11.9091 O   0  5  0  0  0  0  0  0  0  0  0  0
    7.0974  -25.3583   -9.3890 O   0  0  0  0  0  0  0  0  0  0  0  0
    9.0427  -29.5275  -10.2013 O   0  0  0  0  0  0  0  0  0  0  0  0
    9.5637  -24.3675  -10.3796 O   0  0  0  0  0  0  0  0  0  0  0  0
    5.3445  -26.6407   -8.0996 H   0  0  0  0  0  0  0  0  0  0  0  0
    5.1455  -27.3714   -9.6969 H   0  0  0  0  0  0  0  0  0  0  0  0
    6.2286  -29.6825  -10.1531 H   0  0  0  0  0  0  0  0  0  0  0  0
    7.1317  -30.4691   -8.8539 H   0  0  0  0  0  0  0  0  0  0  0  0
    7.0708  -29.5461   -6.5219 H   0  0  0  0  0  0  0  0  0  0  0  0
    6.3264  -27.9666   -6.2083 H   0  0  0  0  0  0  0  0  0  0  0  0
    7.8450  -28.0661   -7.1202 H   0  0  0  0  0  0  0  0  0  0  0  0
    4.9504  -30.3329   -7.4938 H   0  0  0  0  0  0  0  0  0  0  0  0
    4.1932  -29.4650   -8.8432 H   0  0  0  0  0  0  0  0  0  0  0  0
    4.2003  -28.7486   -7.2200 H   0  0  0  0  0  0  0  0  0  0  0  0
   11.3380  -27.0698   -6.6000 H   0  0  0  0  0  0  0  0  0  0  0  0
   12.6910  -26.7179   -7.6888 H   0  0  0  0  0  0  0  0  0  0  0  0
   12.4414  -28.3684   -7.0853 H   0  0  0  0  0  0  0  0  0  0  0  0
   12.8194  -27.1037  -10.9957 H   0  0  0  0  0  0  0  0  0  0  0  0
   11.9526  -25.5564  -10.8463 H   0  0  0  0  0  0  0  0  0  0  0  0
   12.9329  -25.9048  -12.2786 H   0  0  0  0  0  0  0  0  0  0  0  0
   11.6540  -28.1554   -9.4384 H   0  0  0  0  0  0  0  0  0  0  0  0
   10.3300  -28.5531   -8.3414 H   0  0  0  0  0  0  0  0  0  0  0  0
   10.5281  -26.1374  -12.7722 H   0  0  0  0  0  0  0  0  0  0  0  0
   11.3892  -27.6417  -13.0228 H   0  0  0  0  0  0  0  0  0  0  0  0
   11.0189  -25.7465   -9.3681 H   0  0  0  0  0  0  0  0  0  0  0  0
    9.7340  -26.0951   -8.2230 H   0  0  0  0  0  0  0  0  0  0  0  0
   10.5619  -28.4362  -10.8024 H   0  0  0  0  0  0  0  0  0  0  0  0
    9.2734  -28.1259  -11.9474 H   0  0  0  0  0  0  0  0  0  0  0  0
  1  4  1  0  0  0  0
  1 16  1  0  0  0  0
  1 18  2  0  0  0  0
  2  5  1  0  0  0  0
  2 16  1  0  0  0  0
  2 19  2  0  0  0  0
  3 15  1  0  0  0  0
  3 17  1  0  0  0  0
  3 20  2  0  0  0  0
  4  6  1  0  0  0  0
  5  6  1  0  0  0  0
  6  7  1  0  0  0  0
  6  8  1  0  0  0  0
  9 11  1  0  0  0  0
 10 12  1  0  0  0  0
 11 13  1  0  0  0  0
 12 14  1  0  0  0  0
 13 15  1  0  0  0  0
 14 15  1  0  0  0  0
 15 16  1  0  0  0  0
  4 21  1  0  0  0  0
  4 22  1  0  0  0  0
  5 23  1  0  0  0  0
  5 24  1  0  0  0  0
  7 25  1  0  0  0  0
  7 26  1  0  0  0  0
  7 27  1  0  0  0  0
  8 28  1  0  0  0  0
  8 29  1  0  0  0  0
  8 30  1  0  0  0  0
  9 31  1  0  0  0  0
  9 32  1  0  0  0  0
  9 33  1  0  0  0  0
 10 34  1  0  0  0  0
 10 35  1  0  0  0  0
 10 36  1  0  0  0  0
 11 37  1  0  0  0  0
 11 38  1  0  0  0  0
 12 39  1  0  0  0  0
 12 40  1  0  0  0  0
 13 41  1  0  0  0  0
 13 42  1  0  0  0  0
 14 43  1  0  0  0  0
 14 44  1  0  0  0  0
M  CHG  1  17  -1
M  END
> <Hybrid2>
-3.44730806350708

> <Hybrid2>
-3.447308

$$$$
C61828337
  -OEChem-02152218503D

 44 44  0     0  0  0  0  0  0999 V2000
    8.1583  -28.4750   -9.8476 C   0  0  0  0  0  0  0  0  0  0  0  0
    7.3879  -26.2308   -9.0281 C   0  0  0  0  0  0  0  0  0  0  0  0
    9.2504  -24.8922  -10.5055 C   0  0  0  0  0  0  0  0  0  0  0  0
    7.1069  -29.1321   -8.9827 C   0  0  0  0  0  0  0  0  0  0  0  0
    6.3502  -26.9246   -8.1738 C   0  0  0  0  0  0  0  0  0  0  0  0
    5.8746  -28.2589   -8.7480 C   0  0  0  0  0  0  0  0  0  0  0  0
    5.0752  -28.0568  -10.0486 C   0  0  0  0  0  0  0  0  0  0  0  0
    4.9570  -28.9494   -7.7224 C   0  0  0  0  0  0  0  0  0  0  0  0
   12.2164  -27.4837   -8.2607 C   0  0  0  0  0  0  0  0  0  0  0  0
   10.9211  -25.3694  -13.1018 C   0  0  0  0  0  0  0  0  0  0  0  0
   10.8203  -27.0048   -8.6313 C   0  0  0  0  0  0  0  0  0  0  0  0
   10.2672  -26.7391  -13.0317 C   0  0  0  0  0  0  0  0  0  0  0  0
   10.6335  -26.9605  -10.1552 C   0  0  0  0  0  0  0  0  0  0  0  0
    9.0453  -26.8298  -12.1029 C   0  0  0  0  0  0  0  0  0  0  0  0
    9.2459  -26.4412  -10.6156 C   0  0  0  0  0  0  0  0  0  0  0  0
    8.2168  -27.0697   -9.7937 N   0  0  0  0  0  0  0  0  0  0  0  0
    8.1791  -24.3167  -10.8517 O   0  5  0  0  0  0  0  0  0  0  0  0
    8.9322  -29.1756  -10.5049 O   0  0  0  0  0  0  0  0  0  0  0  0
    7.4918  -25.0031   -8.9747 O   0  0  0  0  0  0  0  0  0  0  0  0
   10.3260  -24.3763  -10.0843 O   0  0  0  0  0  0  0  0  0  0  0  0
    6.8161  -30.0760   -9.4604 H   0  0  0  0  0  0  0  0  0  0  0  0
    7.5926  -29.3838   -8.0311 H   0  0  0  0  0  0  0  0  0  0  0  0
    6.7997  -27.0657   -7.1824 H   0  0  0  0  0  0  0  0  0  0  0  0
    5.5002  -26.2417   -8.0511 H   0  0  0  0  0  0  0  0  0  0  0  0
    4.2113  -27.4342   -9.8428 H   0  0  0  0  0  0  0  0  0  0  0  0
    4.7509  -29.0222  -10.4212 H   0  0  0  0  0  0  0  0  0  0  0  0
    5.7084  -27.5735  -10.7846 H   0  0  0  0  0  0  0  0  0  0  0  0
    4.0816  -28.3315   -7.5541 H   0  0  0  0  0  0  0  0  0  0  0  0
    5.4976  -29.0799   -6.7912 H   0  0  0  0  0  0  0  0  0  0  0  0
    4.6540  -29.9164   -8.1090 H   0  0  0  0  0  0  0  0  0  0  0  0
   12.9720  -26.8268   -8.7030 H   0  0  0  0  0  0  0  0  0  0  0  0
   12.3930  -28.4998   -8.6277 H   0  0  0  0  0  0  0  0  0  0  0  0
   12.3570  -27.4801   -7.1752 H   0  0  0  0  0  0  0  0  0  0  0  0
   11.2796  -25.0444  -12.1219 H   0  0  0  0  0  0  0  0  0  0  0  0
   10.2289  -24.6179  -13.4937 H   0  0  0  0  0  0  0  0  0  0  0  0
   11.7907  -25.4053  -13.7664 H   0  0  0  0  0  0  0  0  0  0  0  0
   10.0855  -27.6785   -8.1768 H   0  0  0  0  0  0  0  0  0  0  0  0
   10.6637  -26.0113   -8.1976 H   0  0  0  0  0  0  0  0  0  0  0  0
    9.9324  -27.0025  -14.0431 H   0  0  0  0  0  0  0  0  0  0  0  0
   11.0179  -27.4881  -12.7574 H   0  0  0  0  0  0  0  0  0  0  0  0
   10.7846  -27.9747  -10.5505 H   0  0  0  0  0  0  0  0  0  0  0  0
   11.4318  -26.3427  -10.5874 H   0  0  0  0  0  0  0  0  0  0  0  0
    8.6864  -27.8670  -12.1567 H   0  0  0  0  0  0  0  0  0  0  0  0
    8.2416  -26.2149  -12.5313 H   0  0  0  0  0  0  0  0  0  0  0  0
  1  4  1  0  0  0  0
  1 16  1  0  0  0  0
  1 18  2  0  0  0  0
  2  5  1  0  0  0  0
  2 16  1  0  0  0  0
  2 19  2  0  0  0  0
  3 15  1  0  0  0  0
  3 17  1  0  0  0  0
  3 20  2  0  0  0  0
  4  6  1  0  0  0  0
  5  6  1  0  0  0  0
  6  7  1  0  0  0  0
  6  8  1  0  0  0  0
  9 11  1  0  0  0  0
 10 12  1  0  0  0  0
 11 13  1  0  0  0  0
 12 14  1  0  0  0  0
 13 15  1  0  0  0  0
 14 15  1  0  0  0  0
 15 16  1  0  0  0  0
  4 21  1  0  0  0  0
  4 22  1  0  0  0  0
  5 23  1  0  0  0  0
  5 24  1  0  0  0  0
  7 25  1  0  0  0  0
  7 26  1  0  0  0  0
  7 27  1  0  0  0  0
  8 28  1  0  0  0  0
  8 29  1  0  0  0  0
  8 30  1  0  0  0  0
  9 31  1  0  0  0  0
  9 32  1  0  0  0  0
  9 33  1  0  0  0  0
 10 34  1  0  0  0  0
 10 35  1  0  0  0  0
 10 36  1  0  0  0  0
 11 37  1  0  0  0  0
 11 38  1  0  0  0  0
 12 39  1  0  0  0  0
 12 40  1  0  0  0  0
 13 41  1  0  0  0  0
 13 42  1  0  0  0  0
 14 43  1  0  0  0  0
 14 44  1  0  0  0  0
M  CHG  1  17  -1
M  END
> <Hybrid2>
-3.44730806350708

> <Hybrid2>
-3.404984

$$$$
C61828339
  -OEChem-02152218503D

 47 47  0     1  0  0  0  0  0999 V2000
   10.0590  -25.3683  -10.4480 C   0  0  0  0  0  0  0  0  0  0  0  0
    9.7612  -27.8575  -10.5784 C   0  0  0  0  0  0  0  0  0  0  0  0
    7.6642  -25.1395   -9.0672 C   0  0  0  0  0  0  0  0  0  0  0  0
   11.5145  -25.5407  -10.8182 C   0  0  0  0  0  0  0  0  0  0  0  0
   11.2229  -27.9901  -10.9440 C   0  0  0  0  0  0  0  0  0  0  0  0
   11.7845  -26.7738  -11.6800 C   0  0  0  0  0  0  0  0  0  0  0  0
   11.1592  -26.6272  -13.0796 C   0  0  0  0  0  0  0  0  0  0  0  0
   13.3053  -26.9461  -11.8488 C   0  0  0  0  0  0  0  0  0  0  0  0
    6.1164  -30.0772   -7.7829 C   0  0  0  0  0  0  0  0  0  0  0  0
    7.1157  -27.1957  -12.3193 C   0  0  0  0  0  0  0  0  0  0  0  0
    4.8695  -27.7235   -9.3620 C   0  0  0  0  0  0  0  0  0  0  0  0
    6.0636  -28.6304   -7.3078 C   0  0  0  0  0  0  0  0  0  0  0  0
    7.0539  -26.1057  -11.2510 C   0  0  0  0  0  0  0  0  0  0  0  0
    7.3740  -27.6847   -9.3202 C   0  0  0  0  0  0  0  0  0  0  0  0
    6.0945  -27.5922   -8.4441 C   0  0  1  0  0  0  0  0  0  0  0  0
    7.8993  -26.3788   -9.9752 C   0  0  2  0  0  0  0  0  0  0  0  0
    9.2989  -26.5491  -10.3516 N   0  0  0  0  0  0  0  0  0  0  0  0
    8.2582  -25.1541   -7.9507 O   0  5  0  0  0  0  0  0  0  0  0  0
    9.6218  -24.2413  -10.2021 O   0  0  0  0  0  0  0  0  0  0  0  0
    9.0764  -28.8747  -10.4474 O   0  0  0  0  0  0  0  0  0  0  0  0
    6.8935  -24.2551   -9.5407 O   0  0  0  0  0  0  0  0  0  0  0  0
   11.8408  -24.6340  -11.3427 H   0  0  0  0  0  0  0  0  0  0  0  0
   12.0760  -25.5933   -9.8766 H   0  0  0  0  0  0  0  0  0  0  0  0
   11.7685  -28.1644  -10.0077 H   0  0  0  0  0  0  0  0  0  0  0  0
   11.3381  -28.8907  -11.5600 H   0  0  0  0  0  0  0  0  0  0  0  0
   11.3713  -27.5185  -13.6599 H   0  0  0  0  0  0  0  0  0  0  0  0
   11.5857  -25.7597  -13.5713 H   0  0  0  0  0  0  0  0  0  0  0  0
   10.0866  -26.5015  -12.9793 H   0  0  0  0  0  0  0  0  0  0  0  0
   13.4995  -27.8207  -12.4601 H   0  0  0  0  0  0  0  0  0  0  0  0
   13.7603  -27.0732  -10.8725 H   0  0  0  0  0  0  0  0  0  0  0  0
   13.7127  -26.0641  -12.3310 H   0  0  0  0  0  0  0  0  0  0  0  0
    7.0019  -30.2566   -8.4007 H   0  0  0  0  0  0  0  0  0  0  0  0
    5.2262  -30.3446   -8.3596 H   0  0  0  0  0  0  0  0  0  0  0  0
    6.1620  -30.7518   -6.9216 H   0  0  0  0  0  0  0  0  0  0  0  0
    6.8250  -28.1714  -11.9194 H   0  0  0  0  0  0  0  0  0  0  0  0
    6.4698  -26.9616  -13.1707 H   0  0  0  0  0  0  0  0  0  0  0  0
    8.1401  -27.2877  -12.6952 H   0  0  0  0  0  0  0  0  0  0  0  0
    4.8464  -28.7062   -9.8457 H   0  0  0  0  0  0  0  0  0  0  0  0
    3.9360  -27.6259   -8.7994 H   0  0  0  0  0  0  0  0  0  0  0  0
    4.8801  -26.9600  -10.1471 H   0  0  0  0  0  0  0  0  0  0  0  0
    5.1658  -28.4907   -6.6943 H   0  0  0  0  0  0  0  0  0  0  0  0
    6.9291  -28.4808   -6.6560 H   0  0  0  0  0  0  0  0  0  0  0  0
    7.3550  -25.1551  -11.7104 H   0  0  0  0  0  0  0  0  0  0  0  0
    5.9995  -25.9880  -10.9661 H   0  0  0  0  0  0  0  0  0  0  0  0
    7.2214  -28.4566  -10.0864 H   0  0  0  0  0  0  0  0  0  0  0  0
    8.1714  -28.0730   -8.6694 H   0  0  0  0  0  0  0  0  0  0  0  0
    6.0525  -26.5908   -7.9971 H   0  0  0  0  0  0  0  0  0  0  0  0
  1  4  1  0  0  0  0
  1 17  1  0  0  0  0
  1 19  2  0  0  0  0
  2  5  1  0  0  0  0
  2 17  1  0  0  0  0
  2 20  2  0  0  0  0
  3 16  1  0  0  0  0
  3 18  1  0  0  0  0
  3 21  2  0  0  0  0
  4  6  1  0  0  0  0
  5  6  1  0  0  0  0
  6  7  1  0  0  0  0
  6  8  1  0  0  0  0
  9 12  1  0  0  0  0
 10 13  1  0  0  0  0
 11 15  1  0  0  0  0
 12 15  1  0  0  0  0
 13 16  1  0  0  0  0
 14 15  1  0  0  0  0
 14 16  1  0  0  0  0
 16 17  1  0  0  0  0
  4 22  1  0  0  0  0
  4 23  1  0  0  0  0
  5 24  1  0  0  0  0
  5 25  1  0  0  0  0
  7 26  1  0  0  0  0
  7 27  1  0  0  0  0
  7 28  1  0  0  0  0
  8 29  1  0  0  0  0
  8 30  1  0  0  0  0
  8 31  1  0  0  0  0
  9 32  1  0  0  0  0
  9 33  1  0  0  0  0
  9 34  1  0  0  0  0
 10 35  1  0  0  0  0
 10 36  1  0  0  0  0
 10 37  1  0  0  0  0
 11 38  1  0  0  0  0
 11 39  1  0  0  0  0
 11 40  1  0  0  0  0
 12 41  1  0  0  0  0
 12 42  1  0  0  0  0
 13 43  1  0  0  0  0
 13 44  1  0  0  0  0
 14 45  1  0  0  0  0
 14 46  1  0  0  0  0
 15 47  1  0  0  0  0
M  CHG  1  18  -1
M  END
> <Hybrid2>
-3.591240167617798

> <Hybrid2>
-3.591240

$$$$
C61828339
  -OEChem-02152218503D

 47 47  0     1  0  0  0  0  0999 V2000
   11.1867  -24.7362  -11.7130 C   0  0  0  0  0  0  0  0  0  0  0  0
   11.7490  -26.8887  -10.5502 C   0  0  0  0  0  0  0  0  0  0  0  0
    8.9156  -24.8652   -9.7519 C   0  0  0  0  0  0  0  0  0  0  0  0
   12.6469  -24.5653  -12.0650 C   0  0  0  0  0  0  0  0  0  0  0  0
   13.2013  -26.6817  -10.9187 C   0  0  0  0  0  0  0  0  0  0  0  0
   13.4001  -25.8875  -12.2094 C   0  0  0  0  0  0  0  0  0  0  0  0
   12.9113  -26.6796  -13.4362 C   0  0  0  0  0  0  0  0  0  0  0  0
   14.9004  -25.5941  -12.3935 C   0  0  0  0  0  0  0  0  0  0  0  0
    5.8760  -27.2761   -7.8429 C   0  0  0  0  0  0  0  0  0  0  0  0
    8.9212  -27.0748  -12.9492 C   0  0  0  0  0  0  0  0  0  0  0  0
    7.7448  -29.2812   -9.1698 C   0  0  0  0  0  0  0  0  0  0  0  0
    7.2881  -26.9346   -8.3022 C   0  0  0  0  0  0  0  0  0  0  0  0
    8.5878  -26.0021  -11.9140 C   0  0  0  0  0  0  0  0  0  0  0  0
    9.2293  -27.4137   -9.9341 C   0  0  0  0  0  0  0  0  0  0  0  0
    7.7865  -27.7790   -9.4890 C   0  0  1  0  0  0  0  0  0  0  0  0
    9.4492  -26.0385  -10.6203 C   0  0  2  0  0  0  0  0  0  0  0  0
   10.8569  -25.8880  -10.9742 N   0  0  0  0  0  0  0  0  0  0  0  0
    9.4755  -24.7127   -8.6281 O   0  5  0  0  0  0  0  0  0  0  0  0
   10.3765  -23.8622  -12.0315 O   0  0  0  0  0  0  0  0  0  0  0  0
   11.4318  -27.8672   -9.8699 O   0  0  0  0  0  0  0  0  0  0  0  0
    7.9696  -24.1968  -10.2606 O   0  0  0  0  0  0  0  0  0  0  0  0
   12.7060  -23.9925  -12.9988 H   0  0  0  0  0  0  0  0  0  0  0  0
   13.0925  -23.9480  -11.2743 H   0  0  0  0  0  0  0  0  0  0  0  0
   13.6730  -26.1695  -10.0702 H   0  0  0  0  0  0  0  0  0  0  0  0
   13.6731  -27.6684  -11.0059 H   0  0  0  0  0  0  0  0  0  0  0  0
   13.4670  -27.6084  -13.5054 H   0  0  0  0  0  0  0  0  0  0  0  0
   13.0738  -26.0878  -14.3304 H   0  0  0  0  0  0  0  0  0  0  0  0
   11.8537  -26.8926  -13.3247 H   0  0  0  0  0  0  0  0  0  0  0  0
   15.4370  -26.5310  -12.4963 H   0  0  0  0  0  0  0  0  0  0  0  0
   15.2672  -25.0550  -11.5269 H   0  0  0  0  0  0  0  0  0  0  0  0
   15.0393  -24.9925  -13.2853 H   0  0  0  0  0  0  0  0  0  0  0  0
    5.7924  -28.3357   -7.5818 H   0  0  0  0  0  0  0  0  0  0  0  0
    5.1348  -27.0451   -8.6135 H   0  0  0  0  0  0  0  0  0  0  0  0
    5.6189  -26.6875   -6.9561 H   0  0  0  0  0  0  0  0  0  0  0  0
    8.8575  -28.0808  -12.5247 H   0  0  0  0  0  0  0  0  0  0  0  0
    8.2548  -27.0191  -13.8150 H   0  0  0  0  0  0  0  0  0  0  0  0
    9.9459  -26.9354  -13.3094 H   0  0  0  0  0  0  0  0  0  0  0  0
    8.4017  -29.5206   -8.3265 H   0  0  0  0  0  0  0  0  0  0  0  0
    6.7375  -29.6021   -8.8870 H   0  0  0  0  0  0  0  0  0  0  0  0
    8.0674  -29.8773  -10.0301 H   0  0  0  0  0  0  0  0  0  0  0  0
    7.3314  -25.8685   -8.5539 H   0  0  0  0  0  0  0  0  0  0  0  0
    7.9461  -27.0926   -7.4428 H   0  0  0  0  0  0  0  0  0  0  0  0
    8.6685  -25.0196  -12.3972 H   0  0  0  0  0  0  0  0  0  0  0  0
    7.5297  -26.1258  -11.6458 H   0  0  0  0  0  0  0  0  0  0  0  0
    9.6161  -28.2200  -10.5716 H   0  0  0  0  0  0  0  0  0  0  0  0
    9.8513  -27.4347   -9.0271 H   0  0  0  0  0  0  0  0  0  0  0  0
    7.1101  -27.6140  -10.3374 H   0  0  0  0  0  0  0  0  0  0  0  0
  1  4  1  0  0  0  0
  1 17  1  0  0  0  0
  1 19  2  0  0  0  0
  2  5  1  0  0  0  0
  2 17  1  0  0  0  0
  2 20  2  0  0  0  0
  3 16  1  0  0  0  0
  3 18  1  0  0  0  0
  3 21  2  0  0  0  0
  4  6  1  0  0  0  0
  5  6  1  0  0  0  0
  6  7  1  0  0  0  0
  6  8  1  0  0  0  0
  9 12  1  0  0  0  0
 10 13  1  0  0  0  0
 11 15  1  0  0  0  0
 12 15  1  0  0  0  0
 13 16  1  0  0  0  0
 14 15  1  0  0  0  0
 14 16  1  0  0  0  0
 16 17  1  0  0  0  0
  4 22  1  0  0  0  0
  4 23  1  0  0  0  0
  5 24  1  0  0  0  0
  5 25  1  0  0  0  0
  7 26  1  0  0  0  0
  7 27  1  0  0  0  0
  7 28  1  0  0  0  0
  8 29  1  0  0  0  0
  8 30  1  0  0  0  0
  8 31  1  0  0  0  0
  9 32  1  0  0  0  0
  9 33  1  0  0  0  0
  9 34  1  0  0  0  0
 10 35  1  0  0  0  0
 10 36  1  0  0  0  0
 10 37  1  0  0  0  0
 11 38  1  0  0  0  0
 11 39  1  0  0  0  0
 11 40  1  0  0  0  0
 12 41  1  0  0  0  0
 12 42  1  0  0  0  0
 13 43  1  0  0  0  0
 13 44  1  0  0  0  0
 14 45  1  0  0  0  0
 14 46  1  0  0  0  0
 15 47  1  0  0  0  0
M  CHG  1  18  -1
M  END
> <Hybrid2>
-3.591240167617798

> <Hybrid2>
-2.803123

$$$$
C62716317
  -OEChem-02152218513D

 35 36  0     1  0  0  0  0  0999 V2000
    9.1535  -26.1116   -9.8299 C   0  0  0  0  0  0  0  0  0  0  0  0
    8.9244  -27.3884  -10.1650 C   0  0  0  0  0  0  0  0  0  0  0  0
   10.3467  -25.6913  -10.6077 C   0  0  0  0  0  0  0  0  0  0  0  0
    7.8836  -28.2133   -9.5586 C   0  0  0  0  0  0  0  0  0  0  0  0
    7.9679  -23.9675   -9.6191 C   0  0  0  0  0  0  0  0  0  0  0  0
    7.1054  -30.5207   -8.7500 C   0  0  0  0  0  0  0  0  0  0  0  0
    7.2256  -30.5961  -10.2424 C   0  0  0  0  0  0  0  0  0  0  0  0
    9.8720  -27.9295  -11.1876 C   0  0  2  0  0  0  0  0  0  0  0  0
    8.1175  -29.7023   -9.4628 C   0  0  0  0  0  0  0  0  0  0  0  0
   13.1302  -27.2334  -11.4808 C   0  0  0  0  0  0  0  0  0  0  0  0
    8.3264  -26.7395  -13.1141 C   0  0  0  0  0  0  0  0  0  0  0  0
    8.4915  -25.1904   -8.8748 C   0  0  0  0  0  0  0  0  0  0  0  0
   11.9146  -26.7914  -12.2221 C   0  0  0  0  0  0  0  0  0  0  0  0
   10.7473  -26.7886  -11.3595 N   0  0  0  0  0  0  0  0  0  0  0  0
    7.1184  -24.2121  -10.5214 O   0  5  0  0  0  0  0  0  0  0  0  0
   10.8551  -24.5838  -10.5397 O   0  0  0  0  0  0  0  0  0  0  0  0
    6.8365  -27.7065   -9.1420 O   0  0  0  0  0  0  0  0  0  0  0  0
    8.4476  -22.8625   -9.2385 O   0  0  0  0  0  0  0  0  0  0  0  0
    8.9966  -28.3699  -12.7132 S   0  0  0  0  0  0  0  0  0  0  0  0
    6.2196  -30.0519   -8.3391 H   0  0  0  0  0  0  0  0  0  0  0  0
    7.4794  -31.3561   -8.1707 H   0  0  0  0  0  0  0  0  0  0  0  0
    7.6800  -31.4825  -10.6678 H   0  0  0  0  0  0  0  0  0  0  0  0
    6.4188  -30.1796  -10.8332 H   0  0  0  0  0  0  0  0  0  0  0  0
   10.4488  -28.7759  -10.8014 H   0  0  0  0  0  0  0  0  0  0  0  0
    9.1525  -29.9469   -9.3680 H   0  0  0  0  0  0  0  0  0  0  0  0
   12.9738  -28.2505  -11.0923 H   0  0  0  0  0  0  0  0  0  0  0  0
   13.9954  -27.2295  -12.1601 H   0  0  0  0  0  0  0  0  0  0  0  0
   13.3188  -26.5460  -10.6430 H   0  0  0  0  0  0  0  0  0  0  0  0
    7.7435  -26.7938  -14.0368 H   0  0  0  0  0  0  0  0  0  0  0  0
    9.1428  -26.0258  -13.2497 H   0  0  0  0  0  0  0  0  0  0  0  0
    7.6807  -26.3941  -12.3031 H   0  0  0  0  0  0  0  0  0  0  0  0
    7.6652  -25.7161   -8.3816 H   0  0  0  0  0  0  0  0  0  0  0  0
    9.2136  -24.8868   -8.1075 H   0  0  0  0  0  0  0  0  0  0  0  0
   12.0789  -25.7742  -12.6071 H   0  0  0  0  0  0  0  0  0  0  0  0
   11.7377  -27.4777  -13.0633 H   0  0  0  0  0  0  0  0  0  0  0  0
  1  2  2  0  0  0  0
  1  3  1  0  0  0  0
  1 12  1  0  0  0  0
  2  4  1  0  0  0  0
  2  8  1  0  0  0  0
  3 14  1  0  0  0  0
  3 16  2  0  0  0  0
  4  9  1  0  0  0  0
  4 17  2  0  0  0  0
  5 12  1  0  0  0  0
  5 15  1  0  0  0  0
  5 18  2  0  0  0  0
  6  7  1  0  0  0  0
  6  9  1  0  0  0  0
  7  9  1  0  0  0  0
  8 14  1  0  0  0  0
  8 19  1  0  0  0  0
 10 13  1  0  0  0  0
 11 19  1  0  0  0  0
 13 14  1  0  0  0  0
  6 20  1  0  0  0  0
  6 21  1  0  0  0  0
  7 22  1  0  0  0  0
  7 23  1  0  0  0  0
  8 24  1  0  0  0  0
  9 25  1  0  0  0  0
 10 26  1  0  0  0  0
 10 27  1  0  0  0  0
 10 28  1  0  0  0  0
 11 29  1  0  0  0  0
 11 30  1  0  0  0  0
 11 31  1  0  0  0  0
 12 32  1  0  0  0  0
 12 33  1  0  0  0  0
 13 34  1  0  0  0  0
 13 35  1  0  0  0  0
M  CHG  1  15  -1
M  END
> <Hybrid2>
-4.014653205871582

> <Hybrid2>
-4.014653

$$$$
C62716317
  -OEChem-02152218513D

 35 36  0     1  0  0  0  0  0999 V2000
    9.0823  -25.5823  -10.7820 C   0  0  0  0  0  0  0  0  0  0  0  0
   10.2723  -26.1948  -10.8445 C   0  0  0  0  0  0  0  0  0  0  0  0
    8.2061  -26.4701   -9.9761 C   0  0  0  0  0  0  0  0  0  0  0  0
   11.4037  -25.6948  -11.6199 C   0  0  0  0  0  0  0  0  0  0  0  0
    8.1089  -23.3851  -10.2607 C   0  0  0  0  0  0  0  0  0  0  0  0
   13.4701  -26.1923  -13.0573 C   0  0  0  0  0  0  0  0  0  0  0  0
   13.7763  -26.6676  -11.6690 C   0  0  0  0  0  0  0  0  0  0  0  0
   10.3346  -27.4838  -10.0890 C   0  0  2  0  0  0  0  0  0  0  0  0
   12.3838  -26.6973  -12.1813 C   0  0  0  0  0  0  0  0  0  0  0  0
    7.8944  -29.7484   -9.7666 C   0  0  0  0  0  0  0  0  0  0  0  0
   10.7704  -26.0207   -7.8118 C   0  0  0  0  0  0  0  0  0  0  0  0
    8.5704  -24.3216  -11.3715 C   0  0  0  0  0  0  0  0  0  0  0  0
    8.4496  -28.7007   -8.8628 C   0  0  0  0  0  0  0  0  0  0  0  0
    8.9674  -27.5762   -9.6205 N   0  0  0  0  0  0  0  0  0  0  0  0
    9.0040  -23.0514   -9.4343 O   0  5  0  0  0  0  0  0  0  0  0  0
    7.0346  -26.2354   -9.7267 O   0  0  0  0  0  0  0  0  0  0  0  0
   11.5582  -24.4828  -11.8051 O   0  0  0  0  0  0  0  0  0  0  0  0
    6.8895  -23.0583  -10.3074 O   0  0  0  0  0  0  0  0  0  0  0  0
   11.5297  -27.3808   -8.7292 S   0  0  0  0  0  0  0  0  0  0  0  0
   13.5574  -25.1313  -13.2572 H   0  0  0  0  0  0  0  0  0  0  0  0
   13.7602  -26.8290  -13.8843 H   0  0  0  0  0  0  0  0  0  0  0  0
   14.2731  -27.6241  -11.5613 H   0  0  0  0  0  0  0  0  0  0  0  0
   14.0715  -25.9254  -10.9373 H   0  0  0  0  0  0  0  0  0  0  0  0
   10.5522  -28.3316  -10.7465 H   0  0  0  0  0  0  0  0  0  0  0  0
   11.9256  -27.6363  -12.4007 H   0  0  0  0  0  0  0  0  0  0  0  0
    8.6856  -30.1088  -10.4405 H   0  0  0  0  0  0  0  0  0  0  0  0
    7.5147  -30.5875   -9.1653 H   0  0  0  0  0  0  0  0  0  0  0  0
    7.0729  -29.3219  -10.3610 H   0  0  0  0  0  0  0  0  0  0  0  0
   11.3628  -25.7965   -6.9214 H   0  0  0  0  0  0  0  0  0  0  0  0
    9.7587  -26.2986   -7.5061 H   0  0  0  0  0  0  0  0  0  0  0  0
   10.7212  -25.1296   -8.4422 H   0  0  0  0  0  0  0  0  0  0  0  0
    9.3669  -23.8492  -11.9585 H   0  0  0  0  0  0  0  0  0  0  0  0
    7.7360  -24.5513  -12.0448 H   0  0  0  0  0  0  0  0  0  0  0  0
    7.6528  -28.3457   -8.1927 H   0  0  0  0  0  0  0  0  0  0  0  0
    9.2639  -29.1367   -8.2655 H   0  0  0  0  0  0  0  0  0  0  0  0
  1  2  2  0  0  0  0
  1  3  1  0  0  0  0
  1 12  1  0  0  0  0
  2  4  1  0  0  0  0
  2  8  1  0  0  0  0
  3 14  1  0  0  0  0
  3 16  2  0  0  0  0
  4  9  1  0  0  0  0
  4 17  2  0  0  0  0
  5 12  1  0  0  0  0
  5 15  1  0  0  0  0
  5 18  2  0  0  0  0
  6  7  1  0  0  0  0
  6  9  1  0  0  0  0
  7  9  1  0  0  0  0
  8 14  1  0  0  0  0
  8 19  1  0  0  0  0
 10 13  1  0  0  0  0
 11 19  1  0  0  0  0
 13 14  1  0  0  0  0
  6 20  1  0  0  0  0
  6 21  1  0  0  0  0
  7 22  1  0  0  0  0
  7 23  1  0  0  0  0
  8 24  1  0  0  0  0
  9 25  1  0  0  0  0
 10 26  1  0  0  0  0
 10 27  1  0  0  0  0
 10 28  1  0  0  0  0
 11 29  1  0  0  0  0
 11 30  1  0  0  0  0
 11 31  1  0  0  0  0
 12 32  1  0  0  0  0
 12 33  1  0  0  0  0
 13 34  1  0  0  0  0
 13 35  1  0  0  0  0
M  CHG  1  15  -1
M  END
> <Hybrid2>
-4.014653205871582

> <Hybrid2>
-3.466031

$$$$
C62742635
  -OEChem-02152218513D

 37 37  0     1  0  0  0  0  0999 V2000
    9.9205  -26.1203   -9.2719 C   0  0  0  0  0  0  0  0  0  0  0  0
    9.1278  -27.6898  -10.9288 C   0  0  0  0  0  0  0  0  0  0  0  0
   11.1311  -26.0096   -9.9558 C   0  0  0  0  0  0  0  0  0  0  0  0
   10.3384  -27.5790  -11.6128 C   0  0  0  0  0  0  0  0  0  0  0  0
    8.9188  -26.9604   -9.7583 C   0  0  0  0  0  0  0  0  0  0  0  0
   11.3400  -26.7389  -11.1263 C   0  0  0  0  0  0  0  0  0  0  0  0
    6.9614  -24.8345   -9.2738 C   0  0  0  0  0  0  0  0  0  0  0  0
    8.0750  -29.2847   -7.0773 C   0  0  0  0  0  0  0  0  0  0  0  0
    6.9762  -30.8339   -8.7257 C   0  0  0  0  0  0  0  0  0  0  0  0
   13.8802  -27.8701  -11.2730 C   0  0  0  0  0  0  0  0  0  0  0  0
    7.1609  -25.9857   -8.3024 C   0  0  0  0  0  0  0  0  0  0  0  0
    6.9413  -28.3290   -9.1446 C   0  0  0  0  0  0  0  0  0  0  0  0
    7.7183  -29.5086   -8.5475 C   0  0  0  0  0  0  0  0  0  0  0  0
    7.7181  -27.0706   -9.0805 N   0  0  3  0  0  0  0  0  0  0  0  0
    6.1878  -25.0773  -10.2429 O   0  5  0  0  0  0  0  0  0  0  0  0
    7.5845  -23.7739   -8.9853 O   0  0  0  0  0  0  0  0  0  0  0  0
   12.6156  -26.9481  -13.3766 O   0  0  0  0  0  0  0  0  0  0  0  0
   13.4708  -25.3239  -11.6513 O   0  0  0  0  0  0  0  0  0  0  0  0
   12.8552  -26.6017  -11.9828 S   0  0  0  0  0  0  0  0  0  0  0  0
    9.7685  -25.5477   -8.3605 H   0  0  0  0  0  0  0  0  0  0  0  0
    8.3534  -28.3464  -11.3173 H   0  0  0  0  0  0  0  0  0  0  0  0
   11.9043  -25.3522   -9.5675 H   0  0  0  0  0  0  0  0  0  0  0  0
   10.4902  -28.1522  -12.5237 H   0  0  0  0  0  0  0  0  0  0  0  0
    7.1821  -29.1980   -6.4496 H   0  0  0  0  0  0  0  0  0  0  0  0
    8.6686  -30.1221   -6.6948 H   0  0  0  0  0  0  0  0  0  0  0  0
    8.6686  -28.3726   -6.9554 H   0  0  0  0  0  0  0  0  0  0  0  0
    6.0176  -30.8367   -8.1964 H   0  0  0  0  0  0  0  0  0  0  0  0
    7.5741  -31.6651   -8.3365 H   0  0  0  0  0  0  0  0  0  0  0  0
    6.7815  -31.0311   -9.7851 H   0  0  0  0  0  0  0  0  0  0  0  0
   14.8533  -27.8424  -11.7658 H   0  0  0  0  0  0  0  0  0  0  0  0
   13.9863  -27.6699  -10.2057 H   0  0  0  0  0  0  0  0  0  0  0  0
   13.3966  -28.8345  -11.4352 H   0  0  0  0  0  0  0  0  0  0  0  0
    6.2099  -26.2884   -7.8534 H   0  0  0  0  0  0  0  0  0  0  0  0
    7.8461  -25.7025   -7.4974 H   0  0  0  0  0  0  0  0  0  0  0  0
    6.6856  -28.5255  -10.1914 H   0  0  0  0  0  0  0  0  0  0  0  0
    6.0044  -28.1797   -8.5966 H   0  0  0  0  0  0  0  0  0  0  0  0
    8.6622  -29.5840   -9.1034 H   0  0  0  0  0  0  0  0  0  0  0  0
  1  3  2  0  0  0  0
  1  5  1  0  0  0  0
  2  4  1  0  0  0  0
  2  5  2  0  0  0  0
  3  6  1  0  0  0  0
  4  6  2  0  0  0  0
  5 14  1  0  0  0  0
  6 19  1  0  0  0  0
  7 11  1  0  0  0  0
  7 15  1  0  0  0  0
  7 16  2  0  0  0  0
  8 13  1  0  0  0  0
  9 13  1  0  0  0  0
 10 19  1  0  0  0  0
 11 14  1  0  0  0  0
 12 13  1  0  0  0  0
 12 14  1  0  0  0  0
 17 19  2  0  0  0  0
 18 19  2  0  0  0  0
  1 20  1  0  0  0  0
  2 21  1  0  0  0  0
  3 22  1  0  0  0  0
  4 23  1  0  0  0  0
  8 24  1  0  0  0  0
  8 25  1  0  0  0  0
  8 26  1  0  0  0  0
  9 27  1  0  0  0  0
  9 28  1  0  0  0  0
  9 29  1  0  0  0  0
 10 30  1  0  0  0  0
 10 31  1  0  0  0  0
 10 32  1  0  0  0  0
 11 33  1  0  0  0  0
 11 34  1  0  0  0  0
 12 35  1  0  0  0  0
 12 36  1  0  0  0  0
 13 37  1  0  0  0  0
M  CHG  1  15  -1
M  END
> <Hybrid2>
-5.3602986335754395

> <Hybrid2>
-5.360299

$$$$
C62742635
  -OEChem-02152218513D

 37 37  0     1  0  0  0  0  0999 V2000
   10.2431  -26.1242   -9.5700 C   0  0  0  0  0  0  0  0  0  0  0  0
    9.3815  -27.4440  -11.4012 C   0  0  0  0  0  0  0  0  0  0  0  0
   11.4568  -25.9832  -10.2427 C   0  0  0  0  0  0  0  0  0  0  0  0
   10.5953  -27.3029  -12.0739 C   0  0  0  0  0  0  0  0  0  0  0  0
    9.2054  -26.8547  -10.1492 C   0  0  0  0  0  0  0  0  0  0  0  0
   11.6330  -26.5725  -11.4946 C   0  0  0  0  0  0  0  0  0  0  0  0
    7.3429  -24.7213   -9.3973 C   0  0  0  0  0  0  0  0  0  0  0  0
    8.2630  -29.4503   -7.7666 C   0  0  0  0  0  0  0  0  0  0  0  0
    7.0966  -30.7378   -9.5849 C   0  0  0  0  0  0  0  0  0  0  0  0
   14.1214  -27.7859  -11.7935 C   0  0  0  0  0  0  0  0  0  0  0  0
    7.4927  -25.9901   -8.5747 C   0  0  0  0  0  0  0  0  0  0  0  0
    7.1706  -28.2013   -9.6950 C   0  0  0  0  0  0  0  0  0  0  0  0
    7.8959  -29.4774   -9.2510 C   0  0  0  0  0  0  0  0  0  0  0  0
    8.0016  -26.9949   -9.4827 N   0  0  3  0  0  0  0  0  0  0  0  0
    6.5587  -24.8104  -10.3841 O   0  5  0  0  0  0  0  0  0  0  0  0
    8.0118  -23.7318   -8.9853 O   0  0  0  0  0  0  0  0  0  0  0  0
   12.8965  -26.5603  -13.7613 O   0  0  0  0  0  0  0  0  0  0  0  0
   13.8230  -25.1973  -11.8560 O   0  0  0  0  0  0  0  0  0  0  0  0
   13.1521  -26.3973  -12.3372 S   0  0  0  0  0  0  0  0  0  0  0  0
   10.1169  -25.6612   -8.5947 H   0  0  0  0  0  0  0  0  0  0  0  0
    8.5790  -28.0143  -11.8622 H   0  0  0  0  0  0  0  0  0  0  0  0
   12.2583  -25.4122   -9.7818 H   0  0  0  0  0  0  0  0  0  0  0  0
   10.7213  -27.7666  -13.0488 H   0  0  0  0  0  0  0  0  0  0  0  0
    7.3753  -29.4025   -7.1277 H   0  0  0  0  0  0  0  0  0  0  0  0
    8.8199  -30.3530   -7.4927 H   0  0  0  0  0  0  0  0  0  0  0  0
    8.8960  -28.5864   -7.5380 H   0  0  0  0  0  0  0  0  0  0  0  0
    6.1392  -30.7638   -9.0542 H   0  0  0  0  0  0  0  0  0  0  0  0
    7.6580  -31.6353   -9.3036 H   0  0  0  0  0  0  0  0  0  0  0  0
    6.8927  -30.7956  -10.6593 H   0  0  0  0  0  0  0  0  0  0  0  0
   15.0944  -27.7403  -12.2852 H   0  0  0  0  0  0  0  0  0  0  0  0
   14.2368  -27.7223  -10.7104 H   0  0  0  0  0  0  0  0  0  0  0  0
   13.5961  -28.7015  -12.0692 H   0  0  0  0  0  0  0  0  0  0  0  0
    6.5297  -26.3040   -8.1603 H   0  0  0  0  0  0  0  0  0  0  0  0
    8.1901  -25.8371   -7.7454 H   0  0  0  0  0  0  0  0  0  0  0  0
    6.9058  -28.2573  -10.7564 H   0  0  0  0  0  0  0  0  0  0  0  0
    6.2415  -28.0798   -9.1273 H   0  0  0  0  0  0  0  0  0  0  0  0
    8.8352  -29.5251   -9.8176 H   0  0  0  0  0  0  0  0  0  0  0  0
  1  3  2  0  0  0  0
  1  5  1  0  0  0  0
  2  4  1  0  0  0  0
  2  5  2  0  0  0  0
  3  6  1  0  0  0  0
  4  6  2  0  0  0  0
  5 14  1  0  0  0  0
  6 19  1  0  0  0  0
  7 11  1  0  0  0  0
  7 15  1  0  0  0  0
  7 16  2  0  0  0  0
  8 13  1  0  0  0  0
  9 13  1  0  0  0  0
 10 19  1  0  0  0  0
 11 14  1  0  0  0  0
 12 13  1  0  0  0  0
 12 14  1  0  0  0  0
 17 19  2  0  0  0  0
 18 19  2  0  0  0  0
  1 20  1  0  0  0  0
  2 21  1  0  0  0  0
  3 22  1  0  0  0  0
  4 23  1  0  0  0  0
  8 24  1  0  0  0  0
  8 25  1  0  0  0  0
  8 26  1  0  0  0  0
  9 27  1  0  0  0  0
  9 28  1  0  0  0  0
  9 29  1  0  0  0  0
 10 30  1  0  0  0  0
 10 31  1  0  0  0  0
 10 32  1  0  0  0  0
 11 33  1  0  0  0  0
 11 34  1  0  0  0  0
 12 35  1  0  0  0  0
 12 36  1  0  0  0  0
 13 37  1  0  0  0  0
M  CHG  1  15  -1
M  END
> <Hybrid2>
-5.3602986335754395

> <Hybrid2>
-4.726420

$$$$
C62868586
  -OEChem-02152218513D

 37 37  0     1  0  0  0  0  0999 V2000
    6.6720  -25.2783  -10.8031 C   0  0  0  0  0  0  0  0  0  0  0  0
    9.8969  -27.3094  -10.4157 C   0  0  0  0  0  0  0  0  0  0  0  0
    6.4791  -28.2818  -10.0376 C   0  0  0  0  0  0  0  0  0  0  0  0
    5.8373  -27.0966   -9.3130 C   0  0  0  0  0  0  0  0  0  0  0  0
    7.9096  -28.5072   -9.5646 C   0  0  0  0  0  0  0  0  0  0  0  0
    8.1586  -26.1161   -8.9876 C   0  0  0  0  0  0  0  0  0  0  0  0
    6.7020  -25.8236   -9.3959 C   0  0  1  0  0  0  0  0  0  0  0  0
    6.1141  -24.7326   -8.4925 C   0  0  0  0  0  0  0  0  0  0  0  0
   10.6565  -26.0104  -10.5128 C   0  0  0  0  0  0  0  0  0  0  0  0
   11.9360  -26.1630  -11.3140 C   0  0  0  0  0  0  0  0  0  0  0  0
   14.0108  -27.2635  -11.3955 C   0  0  0  0  0  0  0  0  0  0  0  0
   14.8740  -28.2692  -10.6791 C   0  0  0  0  0  0  0  0  0  0  0  0
    8.7007  -27.2841   -9.6985 N   0  0  0  0  0  0  0  0  0  0  0  0
    7.5714  -25.7190  -11.5712 O   0  5  0  0  0  0  0  0  0  0  0  0
    5.7472  -24.4486  -11.0300 O   0  0  0  0  0  0  0  0  0  0  0  0
   10.3544  -28.3159  -10.9635 O   0  0  0  0  0  0  0  0  0  0  0  0
   12.7989  -27.0934  -10.6732 O   0  0  0  0  0  0  0  0  0  0  0  0
   15.1525  -27.8496   -9.4254 F   0  0  0  0  0  0  0  0  0  0  0  0
   16.0470  -28.4533  -11.3211 F   0  0  0  0  0  0  0  0  0  0  0  0
   14.2560  -29.4654  -10.5839 F   0  0  0  0  0  0  0  0  0  0  0  0
    5.8849  -29.1846   -9.8561 H   0  0  0  0  0  0  0  0  0  0  0  0
    6.4710  -28.1094  -11.1206 H   0  0  0  0  0  0  0  0  0  0  0  0
    4.8411  -26.9175   -9.7361 H   0  0  0  0  0  0  0  0  0  0  0  0
    5.6876  -27.3671   -8.2595 H   0  0  0  0  0  0  0  0  0  0  0  0
    7.9248  -28.7931   -8.5061 H   0  0  0  0  0  0  0  0  0  0  0  0
    8.3600  -29.3284  -10.1307 H   0  0  0  0  0  0  0  0  0  0  0  0
    8.7793  -25.2310   -9.1450 H   0  0  0  0  0  0  0  0  0  0  0  0
    8.2113  -26.3515   -7.9171 H   0  0  0  0  0  0  0  0  0  0  0  0
    6.1102  -25.0719   -7.4578 H   0  0  0  0  0  0  0  0  0  0  0  0
    5.0929  -24.5102   -8.7983 H   0  0  0  0  0  0  0  0  0  0  0  0
    6.7141  -23.8270   -8.5683 H   0  0  0  0  0  0  0  0  0  0  0  0
   10.8796  -25.6803   -9.4971 H   0  0  0  0  0  0  0  0  0  0  0  0
   10.0011  -25.2776  -10.9844 H   0  0  0  0  0  0  0  0  0  0  0  0
   12.4523  -25.1986  -11.3578 H   0  0  0  0  0  0  0  0  0  0  0  0
   11.7427  -26.5034  -12.3367 H   0  0  0  0  0  0  0  0  0  0  0  0
   14.5201  -26.2975  -11.4611 H   0  0  0  0  0  0  0  0  0  0  0  0
   13.7732  -27.6111  -12.4053 H   0  0  0  0  0  0  0  0  0  0  0  0
  1  7  1  0  0  0  0
  1 14  1  0  0  0  0
  1 15  2  0  0  0  0
  2  9  1  0  0  0  0
  2 13  1  0  0  0  0
  2 16  2  0  0  0  0
  3  4  1  0  0  0  0
  3  5  1  0  0  0  0
  4  7  1  0  0  0  0
  5 13  1  0  0  0  0
  6  7  1  0  0  0  0
  6 13  1  0  0  0  0
  7  8  1  0  0  0  0
  9 10  1  0  0  0  0
 10 17  1  0  0  0  0
 11 12  1  0  0  0  0
 11 17  1  0  0  0  0
 12 18  1  0  0  0  0
 12 19  1  0  0  0  0
 12 20  1  0  0  0  0
  3 21  1  0  0  0  0
  3 22  1  0  0  0  0
  4 23  1  0  0  0  0
  4 24  1  0  0  0  0
  5 25  1  0  0  0  0
  5 26  1  0  0  0  0
  6 27  1  0  0  0  0
  6 28  1  0  0  0  0
  8 29  1  0  0  0  0
  8 30  1  0  0  0  0
  8 31  1  0  0  0  0
  9 32  1  0  0  0  0
  9 33  1  0  0  0  0
 10 34  1  0  0  0  0
 10 35  1  0  0  0  0
 11 36  1  0  0  0  0
 11 37  1  0  0  0  0
M  CHG  1  14  -1
M  END
> <Hybrid2>
-2.391380548477173

> <Hybrid2>
-2.391381

$$$$
C62868586
  -OEChem-02152218513D

 37 37  0     1  0  0  0  0  0999 V2000
    6.7294  -25.2576  -10.9797 C   0  0  0  0  0  0  0  0  0  0  0  0
   10.0240  -27.0859  -10.2878 C   0  0  0  0  0  0  0  0  0  0  0  0
    6.6584  -27.9781   -9.4837 C   0  0  0  0  0  0  0  0  0  0  0  0
    6.0239  -26.6582   -9.0397 C   0  0  0  0  0  0  0  0  0  0  0  0
    8.1174  -28.0598   -9.0530 C   0  0  0  0  0  0  0  0  0  0  0  0
    8.3317  -25.5974   -9.1022 C   0  0  0  0  0  0  0  0  0  0  0  0
    6.8482  -25.4348   -9.4854 C   0  0  1  0  0  0  0  0  0  0  0  0
    6.2795  -24.1610   -8.8483 C   0  0  0  0  0  0  0  0  0  0  0  0
   10.7421  -25.8421  -10.7475 C   0  0  0  0  0  0  0  0  0  0  0  0
   11.9811  -26.1727  -11.5584 C   0  0  0  0  0  0  0  0  0  0  0  0
   14.0778  -27.2317  -11.4843 C   0  0  0  0  0  0  0  0  0  0  0  0
   15.0044  -28.0159  -10.5920 C   0  0  0  0  0  0  0  0  0  0  0  0
    8.8669  -26.8984   -9.5314 N   0  0  0  0  0  0  0  0  0  0  0  0
    7.5987  -25.8638  -11.6652 O   0  5  0  0  0  0  0  0  0  0  0  0
    5.7719  -24.5227  -11.3514 O   0  0  0  0  0  0  0  0  0  0  0  0
   10.4790  -28.1910  -10.5944 O   0  0  0  0  0  0  0  0  0  0  0  0
   12.9015  -26.9029  -10.7579 O   0  0  0  0  0  0  0  0  0  0  0  0
   15.3371  -27.2937   -9.4997 F   0  0  0  0  0  0  0  0  0  0  0  0
   16.1465  -28.3387  -11.2350 F   0  0  0  0  0  0  0  0  0  0  0  0
   14.4248  -29.1586  -10.1677 F   0  0  0  0  0  0  0  0  0  0  0  0
    6.0992  -28.8149   -9.0501 H   0  0  0  0  0  0  0  0  0  0  0  0
    6.5886  -28.0809  -10.5733 H   0  0  0  0  0  0  0  0  0  0  0  0
    5.0022  -26.6031   -9.4357 H   0  0  0  0  0  0  0  0  0  0  0  0
    5.9372  -26.6598   -7.9452 H   0  0  0  0  0  0  0  0  0  0  0  0
    8.1961  -28.0729   -7.9594 H   0  0  0  0  0  0  0  0  0  0  0  0
    8.5593  -28.9902   -9.4229 H   0  0  0  0  0  0  0  0  0  0  0  0
    8.9192  -24.7713   -9.5096 H   0  0  0  0  0  0  0  0  0  0  0  0
    8.4471  -25.5581   -8.0115 H   0  0  0  0  0  0  0  0  0  0  0  0
    6.3393  -24.2320   -7.7633 H   0  0  0  0  0  0  0  0  0  0  0  0
    5.2380  -24.0351   -9.1401 H   0  0  0  0  0  0  0  0  0  0  0  0
    6.8500  -23.2950   -9.1807 H   0  0  0  0  0  0  0  0  0  0  0  0
   11.0094  -25.2667   -9.8600 H   0  0  0  0  0  0  0  0  0  0  0  0
   10.0432  -25.2585  -11.3475 H   0  0  0  0  0  0  0  0  0  0  0  0
   12.4682  -25.2430  -11.8697 H   0  0  0  0  0  0  0  0  0  0  0  0
   11.7435  -26.7596  -12.4519 H   0  0  0  0  0  0  0  0  0  0  0  0
   14.5566  -26.3059  -11.8166 H   0  0  0  0  0  0  0  0  0  0  0  0
   13.7968  -27.8228  -12.3609 H   0  0  0  0  0  0  0  0  0  0  0  0
  1  7  1  0  0  0  0
  1 14  1  0  0  0  0
  1 15  2  0  0  0  0
  2  9  1  0  0  0  0
  2 13  1  0  0  0  0
  2 16  2  0  0  0  0
  3  4  1  0  0  0  0
  3  5  1  0  0  0  0
  4  7  1  0  0  0  0
  5 13  1  0  0  0  0
  6  7  1  0  0  0  0
  6 13  1  0  0  0  0
  7  8  1  0  0  0  0
  9 10  1  0  0  0  0
 10 17  1  0  0  0  0
 11 12  1  0  0  0  0
 11 17  1  0  0  0  0
 12 18  1  0  0  0  0
 12 19  1  0  0  0  0
 12 20  1  0  0  0  0
  3 21  1  0  0  0  0
  3 22  1  0  0  0  0
  4 23  1  0  0  0  0
  4 24  1  0  0  0  0
  5 25  1  0  0  0  0
  5 26  1  0  0  0  0
  6 27  1  0  0  0  0
  6 28  1  0  0  0  0
  8 29  1  0  0  0  0
  8 30  1  0  0  0  0
  8 31  1  0  0  0  0
  9 32  1  0  0  0  0
  9 33  1  0  0  0  0
 10 34  1  0  0  0  0
 10 35  1  0  0  0  0
 11 36  1  0  0  0  0
 11 37  1  0  0  0  0
M  CHG  1  14  -1
M  END
> <Hybrid2>
-2.391380548477173

> <Hybrid2>
-2.299535

$$$$
C62914674
  -OEChem-02152218513D

 38 38  0     1  0  0  0  0  0999 V2000
    9.9275  -27.1803  -11.9795 C   0  0  0  0  0  0  0  0  0  0  0  0
    7.3132  -25.0600   -9.1874 C   0  0  0  0  0  0  0  0  0  0  0  0
   10.6006  -25.0809  -10.8565 C   0  0  0  0  0  0  0  0  0  0  0  0
    9.2133  -24.4782  -10.6748 C   0  0  0  0  0  0  0  0  0  0  0  0
    9.2555  -26.6434   -9.6152 C   0  0  0  0  0  0  0  0  0  0  0  0
   10.3718  -26.5773  -10.6499 C   0  0  1  0  0  0  0  0  0  0  0  0
   12.7149  -27.1924  -11.2659 C   0  0  0  0  0  0  0  0  0  0  0  0
    7.4153  -31.1227   -8.6135 C   0  0  0  0  0  0  0  0  0  0  0  0
    6.7173  -26.1147   -8.2898 C   0  0  0  0  0  0  0  0  0  0  0  0
   11.6263  -27.3333  -10.2485 C   0  0  0  0  0  0  0  0  0  0  0  0
    6.1580  -29.3829   -7.6568 C   0  0  0  0  0  0  0  0  0  0  0  0
    5.1162  -28.3128   -7.9425 C   0  0  0  0  0  0  0  0  0  0  0  0
    8.5198  -25.3905   -9.7791 N   0  0  0  0  0  0  0  0  0  0  0  0
    9.7001  -28.4217  -11.9593 O   0  5  0  0  0  0  0  0  0  0  0  0
    9.8442  -26.3564  -12.9332 O   0  0  0  0  0  0  0  0  0  0  0  0
    6.7307  -23.9882   -9.3615 O   0  0  0  0  0  0  0  0  0  0  0  0
    6.3887  -30.1626   -8.8229 O   0  0  0  0  0  0  0  0  0  0  0  0
    5.6577  -27.1991   -9.2619 S   0  0  0  0  0  0  0  0  0  0  0  0
   11.0173  -24.8325  -11.8383 H   0  0  0  0  0  0  0  0  0  0  0  0
   11.2758  -24.6840  -10.0884 H   0  0  0  0  0  0  0  0  0  0  0  0
    9.2379  -23.4672  -10.2570 H   0  0  0  0  0  0  0  0  0  0  0  0
    8.6582  -24.4522  -11.6192 H   0  0  0  0  0  0  0  0  0  0  0  0
    8.5800  -27.4939   -9.7499 H   0  0  0  0  0  0  0  0  0  0  0  0
    9.6433  -26.6615   -8.5905 H   0  0  0  0  0  0  0  0  0  0  0  0
   12.3678  -27.5628  -12.2376 H   0  0  0  0  0  0  0  0  0  0  0  0
   13.5955  -27.7751  -10.9754 H   0  0  0  0  0  0  0  0  0  0  0  0
   13.0009  -26.1421  -11.3851 H   0  0  0  0  0  0  0  0  0  0  0  0
    7.5652  -31.7021   -9.5277 H   0  0  0  0  0  0  0  0  0  0  0  0
    7.1333  -31.7855   -7.7915 H   0  0  0  0  0  0  0  0  0  0  0  0
    8.3417  -30.6027   -8.3583 H   0  0  0  0  0  0  0  0  0  0  0  0
    6.1379  -25.6269   -7.5111 H   0  0  0  0  0  0  0  0  0  0  0  0
    7.5204  -26.6853   -7.8322 H   0  0  0  0  0  0  0  0  0  0  0  0
   11.9846  -26.9602   -9.2824 H   0  0  0  0  0  0  0  0  0  0  0  0
   11.3878  -28.3951  -10.1199 H   0  0  0  0  0  0  0  0  0  0  0  0
    5.8565  -30.0417   -6.8356 H   0  0  0  0  0  0  0  0  0  0  0  0
    7.1049  -28.9059   -7.3835 H   0  0  0  0  0  0  0  0  0  0  0  0
    4.9319  -27.7072   -7.0499 H   0  0  0  0  0  0  0  0  0  0  0  0
    4.1749  -28.7757   -8.2532 H   0  0  0  0  0  0  0  0  0  0  0  0
  1  6  1  0  0  0  0
  1 14  1  0  0  0  0
  1 15  2  0  0  0  0
  2  9  1  0  0  0  0
  2 13  1  0  0  0  0
  2 16  2  0  0  0  0
  3  4  1  0  0  0  0
  3  6  1  0  0  0  0
  4 13  1  0  0  0  0
  5  6  1  0  0  0  0
  5 13  1  0  0  0  0
  6 10  1  0  0  0  0
  7 10  1  0  0  0  0
  8 17  1  0  0  0  0
  9 18  1  0  0  0  0
 11 12  1  0  0  0  0
 11 17  1  0  0  0  0
 12 18  1  0  0  0  0
  3 19  1  0  0  0  0
  3 20  1  0  0  0  0
  4 21  1  0  0  0  0
  4 22  1  0  0  0  0
  5 23  1  0  0  0  0
  5 24  1  0  0  0  0
  7 25  1  0  0  0  0
  7 26  1  0  0  0  0
  7 27  1  0  0  0  0
  8 28  1  0  0  0  0
  8 29  1  0  0  0  0
  8 30  1  0  0  0  0
  9 31  1  0  0  0  0
  9 32  1  0  0  0  0
 10 33  1  0  0  0  0
 10 34  1  0  0  0  0
 11 35  1  0  0  0  0
 11 36  1  0  0  0  0
 12 37  1  0  0  0  0
 12 38  1  0  0  0  0
M  CHG  1  14  -1
M  END
> <Hybrid2>
-4.776064395904541

> <Hybrid2>
-4.776064

$$$$
C62914674
  -OEChem-02152218513D

 38 38  0     1  0  0  0  0  0999 V2000
   10.0068  -25.5659  -12.8227 C   0  0  0  0  0  0  0  0  0  0  0  0
    7.0686  -24.9660   -9.6393 C   0  0  0  0  0  0  0  0  0  0  0  0
   10.6085  -24.6280  -10.6136 C   0  0  0  0  0  0  0  0  0  0  0  0
    9.2643  -23.9970  -10.2731 C   0  0  0  0  0  0  0  0  0  0  0  0
    8.9265  -26.3476  -10.6892 C   0  0  0  0  0  0  0  0  0  0  0  0
   10.2265  -25.9097  -11.3522 C   0  0  1  0  0  0  0  0  0  0  0  0
   12.5893  -26.4764  -11.9389 C   0  0  0  0  0  0  0  0  0  0  0  0
    7.7926  -31.0452   -9.4063 C   0  0  0  0  0  0  0  0  0  0  0  0
    6.2266  -26.2162   -9.6068 C   0  0  0  0  0  0  0  0  0  0  0  0
   11.3139  -26.9696  -11.3305 C   0  0  0  0  0  0  0  0  0  0  0  0
    6.0121  -29.5238   -9.2115 C   0  0  0  0  0  0  0  0  0  0  0  0
    5.3773  -28.4771   -8.3095 C   0  0  0  0  0  0  0  0  0  0  0  0
    8.3384  -25.1139  -10.1696 N   0  0  0  0  0  0  0  0  0  0  0  0
    9.6830  -26.5373  -13.5608 O   0  5  0  0  0  0  0  0  0  0  0  0
   10.1781  -24.3488  -13.1134 O   0  0  0  0  0  0  0  0  0  0  0  0
    6.6180  -23.8999   -9.2168 O   0  0  0  0  0  0  0  0  0  0  0  0
    7.2139  -30.0077   -8.6265 O   0  0  0  0  0  0  0  0  0  0  0  0
    6.4873  -27.0729   -8.0441 S   0  0  0  0  0  0  0  0  0  0  0  0
   11.2286  -23.9481  -11.2073 H   0  0  0  0  0  0  0  0  0  0  0  0
   11.1482  -24.8623   -9.6877 H   0  0  0  0  0  0  0  0  0  0  0  0
    9.2855  -23.4224   -9.3421 H   0  0  0  0  0  0  0  0  0  0  0  0
    8.9100  -23.3439  -11.0783 H   0  0  0  0  0  0  0  0  0  0  0  0
    8.2261  -26.8364  -11.3735 H   0  0  0  0  0  0  0  0  0  0  0  0
    9.1022  -27.0099   -9.8340 H   0  0  0  0  0  0  0  0  0  0  0  0
   12.4123  -26.1644  -12.9749 H   0  0  0  0  0  0  0  0  0  0  0  0
   13.3468  -27.2673  -11.9471 H   0  0  0  0  0  0  0  0  0  0  0  0
   12.9748  -25.6136  -11.3855 H   0  0  0  0  0  0  0  0  0  0  0  0
    8.7118  -31.3920   -8.9280 H   0  0  0  0  0  0  0  0  0  0  0  0
    8.0103  -30.6700  -10.4095 H   0  0  0  0  0  0  0  0  0  0  0  0
    7.0851  -31.8749   -9.4753 H   0  0  0  0  0  0  0  0  0  0  0  0
    6.5154  -26.8561  -10.4357 H   0  0  0  0  0  0  0  0  0  0  0  0
    5.1811  -25.9420   -9.7153 H   0  0  0  0  0  0  0  0  0  0  0  0
   11.5031  -27.2783  -10.2961 H   0  0  0  0  0  0  0  0  0  0  0  0
   10.9720  -27.8555  -11.8776 H   0  0  0  0  0  0  0  0  0  0  0  0
    6.2296  -29.1293  -10.2097 H   0  0  0  0  0  0  0  0  0  0  0  0
    5.3299  -30.3735   -9.3200 H   0  0  0  0  0  0  0  0  0  0  0  0
    5.1413  -28.9051   -7.3305 H   0  0  0  0  0  0  0  0  0  0  0  0
    4.4542  -28.1005   -8.7598 H   0  0  0  0  0  0  0  0  0  0  0  0
  1  6  1  0  0  0  0
  1 14  1  0  0  0  0
  1 15  2  0  0  0  0
  2  9  1  0  0  0  0
  2 13  1  0  0  0  0
  2 16  2  0  0  0  0
  3  4  1  0  0  0  0
  3  6  1  0  0  0  0
  4 13  1  0  0  0  0
  5  6  1  0  0  0  0
  5 13  1  0  0  0  0
  6 10  1  0  0  0  0
  7 10  1  0  0  0  0
  8 17  1  0  0  0  0
  9 18  1  0  0  0  0
 11 12  1  0  0  0  0
 11 17  1  0  0  0  0
 12 18  1  0  0  0  0
  3 19  1  0  0  0  0
  3 20  1  0  0  0  0
  4 21  1  0  0  0  0
  4 22  1  0  0  0  0
  5 23  1  0  0  0  0
  5 24  1  0  0  0  0
  7 25  1  0  0  0  0
  7 26  1  0  0  0  0
  7 27  1  0  0  0  0
  8 28  1  0  0  0  0
  8 29  1  0  0  0  0
  8 30  1  0  0  0  0
  9 31  1  0  0  0  0
  9 32  1  0  0  0  0
 10 33  1  0  0  0  0
 10 34  1  0  0  0  0
 11 35  1  0  0  0  0
 11 36  1  0  0  0  0
 12 37  1  0  0  0  0
 12 38  1  0  0  0  0
M  CHG  1  14  -1
M  END
> <Hybrid2>
-4.776064395904541

> <Hybrid2>
-4.621514

$$$$
C63016076
  -OEChem-02152218513D

 37 37  0     1  0  0  0  0  0999 V2000
    8.9130  -27.7199   -8.8829 C   0  0  0  0  0  0  0  0  0  0  0  0
    8.3594  -28.3619  -11.1453 C   0  0  0  0  0  0  0  0  0  0  0  0
    9.6960  -26.6740   -9.3713 C   0  0  0  0  0  0  0  0  0  0  0  0
    9.1424  -27.3160  -11.6337 C   0  0  0  0  0  0  0  0  0  0  0  0
    8.2447  -28.5639   -9.7699 C   0  0  0  0  0  0  0  0  0  0  0  0
    9.8107  -26.4720  -10.7467 C   0  0  0  0  0  0  0  0  0  0  0  0
    9.4876  -23.3804  -10.6863 C   0  0  0  0  0  0  0  0  0  0  0  0
    7.4077  -29.6827   -9.2487 C   0  0  0  0  0  0  0  0  0  0  0  0
   15.5611  -27.7636  -10.3232 C   0  0  0  0  0  0  0  0  0  0  0  0
   10.7479  -24.1939  -10.4434 C   0  0  0  0  0  0  0  0  0  0  0  0
   12.2200  -26.7031  -12.5750 C   0  0  0  0  0  0  0  0  0  0  0  0
   11.2760  -25.5083  -12.5029 C   0  0  0  0  0  0  0  0  0  0  0  0
   13.3211  -26.6387  -11.5253 C   0  0  0  0  0  0  0  0  0  0  0  0
   10.5980  -25.4171  -11.2391 N   0  0  3  0  0  0  0  0  0  0  0  0
    8.4090  -23.9495  -10.3556 O   0  5  0  0  0  0  0  0  0  0  0  0
    9.6759  -22.2318  -11.1777 O   0  0  0  0  0  0  0  0  0  0  0  0
   13.6546  -29.2256  -11.3530 O   0  0  0  0  0  0  0  0  0  0  0  0
   15.1485  -27.9045  -12.9004 O   0  0  0  0  0  0  0  0  0  0  0  0
   14.4106  -28.0218  -11.6542 S   0  0  0  0  0  0  0  0  0  0  0  0
    8.8301  -27.8706   -7.8100 H   0  0  0  0  0  0  0  0  0  0  0  0
    7.8438  -29.0154  -11.8439 H   0  0  0  0  0  0  0  0  0  0  0  0
   10.2137  -26.0231   -8.6715 H   0  0  0  0  0  0  0  0  0  0  0  0
    9.2252  -27.1682  -12.7074 H   0  0  0  0  0  0  0  0  0  0  0  0
    6.3754  -29.3465   -9.0917 H   0  0  0  0  0  0  0  0  0  0  0  0
    7.3952  -30.5299   -9.9468 H   0  0  0  0  0  0  0  0  0  0  0  0
    7.7987  -30.0624   -8.2957 H   0  0  0  0  0  0  0  0  0  0  0  0
   16.2817  -28.5830  -10.3270 H   0  0  0  0  0  0  0  0  0  0  0  0
   16.0658  -26.8098  -10.4843 H   0  0  0  0  0  0  0  0  0  0  0  0
   15.0044  -27.7483   -9.3850 H   0  0  0  0  0  0  0  0  0  0  0  0
   10.8564  -24.4405   -9.3827 H   0  0  0  0  0  0  0  0  0  0  0  0
   11.6368  -23.6395  -10.7598 H   0  0  0  0  0  0  0  0  0  0  0  0
   12.6737  -26.7344  -13.5732 H   0  0  0  0  0  0  0  0  0  0  0  0
   11.6538  -27.6357  -12.4589 H   0  0  0  0  0  0  0  0  0  0  0  0
   11.8166  -24.5696  -12.6609 H   0  0  0  0  0  0  0  0  0  0  0  0
   10.5038  -25.5924  -13.2739 H   0  0  0  0  0  0  0  0  0  0  0  0
   13.9337  -25.7403  -11.6462 H   0  0  0  0  0  0  0  0  0  0  0  0
   12.9135  -26.6543  -10.5103 H   0  0  0  0  0  0  0  0  0  0  0  0
  1  3  2  0  0  0  0
  1  5  1  0  0  0  0
  2  4  1  0  0  0  0
  2  5  2  0  0  0  0
  3  6  1  0  0  0  0
  4  6  2  0  0  0  0
  5  8  1  0  0  0  0
  6 14  1  0  0  0  0
  7 10  1  0  0  0  0
  7 15  1  0  0  0  0
  7 16  2  0  0  0  0
  9 19  1  0  0  0  0
 10 14  1  0  0  0  0
 11 12  1  0  0  0  0
 11 13  1  0  0  0  0
 12 14  1  0  0  0  0
 13 19  1  0  0  0  0
 17 19  2  0  0  0  0
 18 19  2  0  0  0  0
  1 20  1  0  0  0  0
  2 21  1  0  0  0  0
  3 22  1  0  0  0  0
  4 23  1  0  0  0  0
  8 24  1  0  0  0  0
  8 25  1  0  0  0  0
  8 26  1  0  0  0  0
  9 27  1  0  0  0  0
  9 28  1  0  0  0  0
  9 29  1  0  0  0  0
 10 30  1  0  0  0  0
 10 31  1  0  0  0  0
 11 32  1  0  0  0  0
 11 33  1  0  0  0  0
 12 34  1  0  0  0  0
 12 35  1  0  0  0  0
 13 36  1  0  0  0  0
 13 37  1  0  0  0  0
M  CHG  1  15  -1
M  END
> <Hybrid2>
-4.1464643478393555

> <Hybrid2>
-4.146464

$$$$
C63016076
  -OEChem-02152218513D

 37 37  0     1  0  0  0  0  0999 V2000
   11.9883  -26.4862   -9.4323 C   0  0  0  0  0  0  0  0  0  0  0  0
   11.5276  -27.1803  -11.7001 C   0  0  0  0  0  0  0  0  0  0  0  0
   10.7307  -25.8871   -9.3601 C   0  0  0  0  0  0  0  0  0  0  0  0
   10.2700  -26.5812  -11.6280 C   0  0  0  0  0  0  0  0  0  0  0  0
   12.3868  -27.1327  -10.6023 C   0  0  0  0  0  0  0  0  0  0  0  0
    9.8716  -25.9346  -10.4580 C   0  0  0  0  0  0  0  0  0  0  0  0
    9.3628  -23.0976  -10.0472 C   0  0  0  0  0  0  0  0  0  0  0  0
   13.7313  -27.7731  -10.6806 C   0  0  0  0  0  0  0  0  0  0  0  0
    4.6573  -29.2124   -9.4738 C   0  0  0  0  0  0  0  0  0  0  0  0
    8.4084  -24.1593   -9.5267 C   0  0  0  0  0  0  0  0  0  0  0  0
    7.1025  -27.2516  -10.7514 C   0  0  0  0  0  0  0  0  0  0  0  0
    7.4882  -25.8296  -11.1428 C   0  0  0  0  0  0  0  0  0  0  0  0
    6.7291  -27.3690   -9.2799 C   0  0  0  0  0  0  0  0  0  0  0  0
    8.6037  -25.3328  -10.3850 N   0  0  3  0  0  0  0  0  0  0  0  0
    9.1810  -22.7550  -11.2498 O   0  5  0  0  0  0  0  0  0  0  0  0
   10.2117  -22.6810   -9.2093 O   0  0  0  0  0  0  0  0  0  0  0  0
    7.1684  -29.9230   -9.6215 O   0  0  0  0  0  0  0  0  0  0  0  0
    6.2546  -29.1290   -7.4065 O   0  0  0  0  0  0  0  0  0  0  0  0
    6.3145  -29.0315   -8.8550 S   0  0  0  0  0  0  0  0  0  0  0  0
   12.6516  -26.4434   -8.5727 H   0  0  0  0  0  0  0  0  0  0  0  0
   11.8301  -27.6802  -12.6163 H   0  0  0  0  0  0  0  0  0  0  0  0
   10.4308  -25.3847   -8.4442 H   0  0  0  0  0  0  0  0  0  0  0  0
    9.6089  -26.6237  -12.4897 H   0  0  0  0  0  0  0  0  0  0  0  0
   13.6768  -28.8176  -10.3500 H   0  0  0  0  0  0  0  0  0  0  0  0
   14.1234  -27.7528  -11.7057 H   0  0  0  0  0  0  0  0  0  0  0  0
   14.4607  -27.2466  -10.0512 H   0  0  0  0  0  0  0  0  0  0  0  0
    4.3154  -30.2246   -9.2521 H   0  0  0  0  0  0  0  0  0  0  0  0
    4.0222  -28.4769   -8.9776 H   0  0  0  0  0  0  0  0  0  0  0  0
    4.6715  -29.0409  -10.5512 H   0  0  0  0  0  0  0  0  0  0  0  0
    7.3711  -23.8148   -9.5829 H   0  0  0  0  0  0  0  0  0  0  0  0
    8.6319  -24.4074   -8.4845 H   0  0  0  0  0  0  0  0  0  0  0  0
    7.9479  -27.9175  -10.9640 H   0  0  0  0  0  0  0  0  0  0  0  0
    6.2671  -27.5978  -11.3727 H   0  0  0  0  0  0  0  0  0  0  0  0
    7.7520  -25.7713  -12.2036 H   0  0  0  0  0  0  0  0  0  0  0  0
    6.6505  -25.1493  -10.9606 H   0  0  0  0  0  0  0  0  0  0  0  0
    7.5616  -27.0749   -8.6337 H   0  0  0  0  0  0  0  0  0  0  0  0
    5.8572  -26.7558   -9.0339 H   0  0  0  0  0  0  0  0  0  0  0  0
  1  3  2  0  0  0  0
  1  5  1  0  0  0  0
  2  4  1  0  0  0  0
  2  5  2  0  0  0  0
  3  6  1  0  0  0  0
  4  6  2  0  0  0  0
  5  8  1  0  0  0  0
  6 14  1  0  0  0  0
  7 10  1  0  0  0  0
  7 15  1  0  0  0  0
  7 16  2  0  0  0  0
  9 19  1  0  0  0  0
 10 14  1  0  0  0  0
 11 12  1  0  0  0  0
 11 13  1  0  0  0  0
 12 14  1  0  0  0  0
 13 19  1  0  0  0  0
 17 19  2  0  0  0  0
 18 19  2  0  0  0  0
  1 20  1  0  0  0  0
  2 21  1  0  0  0  0
  3 22  1  0  0  0  0
  4 23  1  0  0  0  0
  8 24  1  0  0  0  0
  8 25  1  0  0  0  0
  8 26  1  0  0  0  0
  9 27  1  0  0  0  0
  9 28  1  0  0  0  0
  9 29  1  0  0  0  0
 10 30  1  0  0  0  0
 10 31  1  0  0  0  0
 11 32  1  0  0  0  0
 11 33  1  0  0  0  0
 12 34  1  0  0  0  0
 12 35  1  0  0  0  0
 13 36  1  0  0  0  0
 13 37  1  0  0  0  0
M  CHG  1  15  -1
M  END
> <Hybrid2>
-4.1464643478393555

> <Hybrid2>
-3.435299

$$$$
C63098216
  -OEChem-02152218513D

 35 35  0     1  0  0  0  0  0999 V2000
    7.1776  -31.4106   -7.8826 C   0  0  0  0  0  0  0  0  0  0  0  0
    9.0743  -27.1729   -8.3634 C   0  0  0  0  0  0  0  0  0  0  0  0
   10.3902  -27.3024   -8.8073 C   0  0  0  0  0  0  0  0  0  0  0  0
    8.3287  -26.9190  -10.6474 C   0  0  0  0  0  0  0  0  0  0  0  0
    8.0435  -26.9813   -9.2834 C   0  0  0  0  0  0  0  0  0  0  0  0
   10.6755  -27.2401  -10.1713 C   0  0  0  0  0  0  0  0  0  0  0  0
    9.6447  -27.0484  -11.0913 C   0  0  0  0  0  0  0  0  0  0  0  0
   12.0497  -27.3756  -10.6285 C   0  0  0  0  0  0  0  0  0  0  0  0
   12.7271  -26.4545  -11.3501 C   0  0  0  0  0  0  0  0  0  0  0  0
    6.6550  -26.8450   -8.8155 C   0  0  0  0  0  0  0  0  0  0  0  0
   14.1770  -26.6770  -11.8065 C   0  0  0  0  0  0  0  0  0  0  0  0
    5.5024  -29.9313  -10.1468 C   0  0  0  0  0  0  0  0  0  0  0  0
    4.5076  -27.8952   -8.2157 C   0  0  0  0  0  0  0  0  0  0  0  0
    6.2689  -30.2587   -7.7699 C   0  0  0  0  0  0  0  0  0  0  0  0
    6.3363  -29.3543   -9.0066 C   0  0  2  0  0  0  0  0  0  0  0  0
    7.8935  -32.3196   -7.9697 N   0  0  0  0  0  0  0  0  0  0  0  0
    5.8845  -28.0167   -8.6945 N   0  0  0  0  0  0  0  0  0  0  0  0
   14.7221  -27.7678  -11.4785 O   0  5  0  0  0  0  0  0  0  0  0  0
    6.2785  -25.7033   -8.5532 O   0  0  0  0  0  0  0  0  0  0  0  0
   14.6601  -25.7134  -12.4715 O   0  0  0  0  0  0  0  0  0  0  0  0
    9.9030  -26.9868  -12.4059 F   0  0  0  0  0  0  0  0  0  0  0  0
    8.8631  -27.2221   -7.2983 H   0  0  0  0  0  0  0  0  0  0  0  0
   11.1827  -27.4508   -8.0774 H   0  0  0  0  0  0  0  0  0  0  0  0
    7.5332  -26.7709  -11.3730 H   0  0  0  0  0  0  0  0  0  0  0  0
   12.5483  -28.3167  -10.3726 H   0  0  0  0  0  0  0  0  0  0  0  0
   12.2334  -25.5262  -11.6348 H   0  0  0  0  0  0  0  0  0  0  0  0
    4.4553  -30.0424   -9.8443 H   0  0  0  0  0  0  0  0  0  0  0  0
    5.5235  -29.2771  -11.0256 H   0  0  0  0  0  0  0  0  0  0  0  0
    5.8746  -30.9170  -10.4446 H   0  0  0  0  0  0  0  0  0  0  0  0
    3.8327  -27.7490   -9.0720 H   0  0  0  0  0  0  0  0  0  0  0  0
    4.2242  -28.8120   -7.6780 H   0  0  0  0  0  0  0  0  0  0  0  0
    4.4303  -27.0332   -7.5368 H   0  0  0  0  0  0  0  0  0  0  0  0
    6.5440  -29.6844   -6.8770 H   0  0  0  0  0  0  0  0  0  0  0  0
    5.2437  -30.6180   -7.6173 H   0  0  0  0  0  0  0  0  0  0  0  0
    7.3747  -29.2583   -9.3464 H   0  0  0  0  0  0  0  0  0  0  0  0
  1 14  1  0  0  0  0
  1 16  3  0  0  0  0
  2  3  2  0  0  0  0
  2  5  1  0  0  0  0
  3  6  1  0  0  0  0
  4  5  2  0  0  0  0
  4  7  1  0  0  0  0
  5 10  1  0  0  0  0
  6  7  2  0  0  0  0
  6  8  1  0  0  0  0
  7 21  1  0  0  0  0
  8  9  2  0  0  0  0
  9 11  1  0  0  0  0
 10 17  1  0  0  0  0
 10 19  2  0  0  0  0
 11 18  1  0  0  0  0
 11 20  2  0  0  0  0
 12 15  1  0  0  0  0
 13 17  1  0  0  0  0
 14 15  1  0  0  0  0
 15 17  1  0  0  0  0
  2 22  1  0  0  0  0
  3 23  1  0  0  0  0
  4 24  1  0  0  0  0
  8 25  1  0  0  0  0
  9 26  1  0  0  0  0
 12 27  1  0  0  0  0
 12 28  1  0  0  0  0
 12 29  1  0  0  0  0
 13 30  1  0  0  0  0
 13 31  1  0  0  0  0
 13 32  1  0  0  0  0
 14 33  1  0  0  0  0
 14 34  1  0  0  0  0
 15 35  1  0  0  0  0
M  CHG  1  18  -1
M  END
> <Hybrid2>
-3.845217704772949

> <Hybrid2>
-3.845218

$$$$
C63098216
  -OEChem-02152218513D

 35 35  0     1  0  0  0  0  0999 V2000
    6.5852  -30.3325   -8.0831 C   0  0  0  0  0  0  0  0  0  0  0  0
    8.3498  -26.3670  -11.2934 C   0  0  0  0  0  0  0  0  0  0  0  0
    9.6772  -26.6631  -11.6031 C   0  0  0  0  0  0  0  0  0  0  0  0
    8.8981  -26.3700   -8.9404 C   0  0  0  0  0  0  0  0  0  0  0  0
    7.9603  -26.2203   -9.9620 C   0  0  0  0  0  0  0  0  0  0  0  0
   10.6150  -26.8128  -10.5815 C   0  0  0  0  0  0  0  0  0  0  0  0
   10.2255  -26.6662   -9.2501 C   0  0  0  0  0  0  0  0  0  0  0  0
   11.9980  -27.1218  -10.9103 C   0  0  0  0  0  0  0  0  0  0  0  0
   12.8035  -26.3649  -11.6889 C   0  0  0  0  0  0  0  0  0  0  0  0
    6.5600  -25.9076   -9.6350 C   0  0  0  0  0  0  0  0  0  0  0  0
   14.2534  -26.7660  -11.9999 C   0  0  0  0  0  0  0  0  0  0  0  0
    5.2254  -29.0397  -10.6523 C   0  0  0  0  0  0  0  0  0  0  0  0
    4.2860  -26.6858   -9.0899 C   0  0  0  0  0  0  0  0  0  0  0  0
    5.7820  -29.1047   -8.1966 C   0  0  0  0  0  0  0  0  0  0  0  0
    6.0237  -28.3847   -9.5289 C   0  0  2  0  0  0  0  0  0  0  0  0
    7.2177  -31.3009   -7.9917 N   0  0  0  0  0  0  0  0  0  0  0  0
    5.6769  -26.9844   -9.4305 N   0  0  0  0  0  0  0  0  0  0  0  0
   14.6727  -27.8445  -11.4945 O   0  5  0  0  0  0  0  0  0  0  0  0
    6.2734  -24.7137   -9.5543 O   0  0  0  0  0  0  0  0  0  0  0  0
   14.8661  -25.9433  -12.7429 O   0  0  0  0  0  0  0  0  0  0  0  0
   11.1156  -26.8066   -8.2568 F   0  0  0  0  0  0  0  0  0  0  0  0
    7.6269  -26.2533  -12.0971 H   0  0  0  0  0  0  0  0  0  0  0  0
    9.9650  -26.7748  -12.6459 H   0  0  0  0  0  0  0  0  0  0  0  0
    8.6056  -26.2571   -7.8997 H   0  0  0  0  0  0  0  0  0  0  0  0
   12.3896  -28.0584  -10.4988 H   0  0  0  0  0  0  0  0  0  0  0  0
   12.4174  -25.4452  -12.1267 H   0  0  0  0  0  0  0  0  0  0  0  0
    4.1531  -29.0218  -10.4281 H   0  0  0  0  0  0  0  0  0  0  0  0
    5.3716  -28.5145  -11.6028 H   0  0  0  0  0  0  0  0  0  0  0  0
    5.5249  -30.0840  -10.7885 H   0  0  0  0  0  0  0  0  0  0  0  0
    3.6922  -26.6015  -10.0120 H   0  0  0  0  0  0  0  0  0  0  0  0
    3.8798  -27.4948   -8.4650 H   0  0  0  0  0  0  0  0  0  0  0  0
    4.2399  -25.7364   -8.5362 H   0  0  0  0  0  0  0  0  0  0  0  0
    6.0433  -28.4396   -7.3647 H   0  0  0  0  0  0  0  0  0  0  0  0
    4.7194  -29.3540   -8.0868 H   0  0  0  0  0  0  0  0  0  0  0  0
    7.0886  -28.4217   -9.7888 H   0  0  0  0  0  0  0  0  0  0  0  0
  1 14  1  0  0  0  0
  1 16  3  0  0  0  0
  2  3  2  0  0  0  0
  2  5  1  0  0  0  0
  3  6  1  0  0  0  0
  4  5  2  0  0  0  0
  4  7  1  0  0  0  0
  5 10  1  0  0  0  0
  6  7  2  0  0  0  0
  6  8  1  0  0  0  0
  7 21  1  0  0  0  0
  8  9  2  0  0  0  0
  9 11  1  0  0  0  0
 10 17  1  0  0  0  0
 10 19  2  0  0  0  0
 11 18  1  0  0  0  0
 11 20  2  0  0  0  0
 12 15  1  0  0  0  0
 13 17  1  0  0  0  0
 14 15  1  0  0  0  0
 15 17  1  0  0  0  0
  2 22  1  0  0  0  0
  3 23  1  0  0  0  0
  4 24  1  0  0  0  0
  8 25  1  0  0  0  0
  9 26  1  0  0  0  0
 12 27  1  0  0  0  0
 12 28  1  0  0  0  0
 12 29  1  0  0  0  0
 13 30  1  0  0  0  0
 13 31  1  0  0  0  0
 13 32  1  0  0  0  0
 14 33  1  0  0  0  0
 14 34  1  0  0  0  0
 15 35  1  0  0  0  0
M  CHG  1  18  -1
M  END
> <Hybrid2>
-3.845217704772949

> <Hybrid2>
-3.646465

$$$$
C67003495
  -OEChem-02152218513D

 38 38  0     1  0  0  0  0  0999 V2000
    6.7869  -25.8445   -9.2037 C   0  0  0  0  0  0  0  0  0  0  0  0
   13.1255  -26.8440  -13.4112 C   0  0  0  0  0  0  0  0  0  0  0  0
   13.8739  -27.6130  -12.3282 C   0  0  0  0  0  0  0  0  0  0  0  0
   11.6184  -26.9493  -13.1988 C   0  0  0  0  0  0  0  0  0  0  0  0
   13.3837  -27.2090  -10.9442 C   0  0  0  0  0  0  0  0  0  0  0  0
   11.2479  -26.5705  -11.7630 C   0  0  1  0  0  0  0  0  0  0  0  0
    4.8044  -25.9145  -10.7672 C   0  0  0  0  0  0  0  0  0  0  0  0
    5.6492  -30.2694   -7.8833 C   0  0  0  0  0  0  0  0  0  0  0  0
    9.7619  -26.7805  -11.5072 C   0  0  0  0  0  0  0  0  0  0  0  0
    5.3556  -27.9288   -9.2801 C   0  0  0  0  0  0  0  0  0  0  0  0
    5.3430  -26.3964   -9.4155 C   0  0  1  0  0  0  0  0  0  0  0  0
    7.6352  -26.2879  -10.0937 N   0  0  0  0  0  0  0  0  0  0  0  0
    6.9493  -25.0673   -8.2367 O   0  5  0  0  0  0  0  0  0  0  0  0
    9.3522  -24.4556  -10.4274 O   0  0  0  0  0  0  0  0  0  0  0  0
    9.8855  -26.4217   -8.9392 O   0  0  0  0  0  0  0  0  0  0  0  0
   11.9715  -27.3860  -10.8350 O   0  0  0  0  0  0  0  0  0  0  0  0
    5.8793  -28.4947   -7.6331 S   0  0  0  0  0  0  0  0  0  0  0  0
    9.2087  -25.8612  -10.0945 S   0  0  0  0  0  0  0  0  0  0  0  0
   13.4249  -25.7892  -13.3827 H   0  0  0  0  0  0  0  0  0  0  0  0
   13.3946  -27.2289  -14.4010 H   0  0  0  0  0  0  0  0  0  0  0  0
   13.6940  -28.6854  -12.4734 H   0  0  0  0  0  0  0  0  0  0  0  0
   14.9519  -27.4428  -12.4159 H   0  0  0  0  0  0  0  0  0  0  0  0
   11.0929  -26.3082  -13.9153 H   0  0  0  0  0  0  0  0  0  0  0  0
   11.3135  -27.9848  -13.3975 H   0  0  0  0  0  0  0  0  0  0  0  0
   13.8582  -27.8370  -10.1835 H   0  0  0  0  0  0  0  0  0  0  0  0
   13.6391  -26.1669  -10.7190 H   0  0  0  0  0  0  0  0  0  0  0  0
   11.4878  -25.5178  -11.5713 H   0  0  0  0  0  0  0  0  0  0  0  0
    5.4148  -26.3047  -11.5893 H   0  0  0  0  0  0  0  0  0  0  0  0
    4.8166  -24.8213  -10.8380 H   0  0  0  0  0  0  0  0  0  0  0  0
    3.7771  -26.2529  -10.9313 H   0  0  0  0  0  0  0  0  0  0  0  0
    5.9199  -30.8112   -6.9737 H   0  0  0  0  0  0  0  0  0  0  0  0
    6.2824  -30.6135   -8.7048 H   0  0  0  0  0  0  0  0  0  0  0  0
    4.6044  -30.4777   -8.1259 H   0  0  0  0  0  0  0  0  0  0  0  0
    9.5433  -27.8340  -11.3120 H   0  0  0  0  0  0  0  0  0  0  0  0
    9.1667  -26.4475  -12.3618 H   0  0  0  0  0  0  0  0  0  0  0  0
    6.0181  -28.3843  -10.0242 H   0  0  0  0  0  0  0  0  0  0  0  0
    4.3506  -28.3275   -9.4579 H   0  0  0  0  0  0  0  0  0  0  0  0
    4.6965  -25.9774   -8.6301 H   0  0  0  0  0  0  0  0  0  0  0  0
  1 11  1  0  0  0  0
  1 12  2  0  0  0  0
  1 13  1  0  0  0  0
  2  3  1  0  0  0  0
  2  4  1  0  0  0  0
  3  5  1  0  0  0  0
  4  6  1  0  0  0  0
  5 16  1  0  0  0  0
  6  9  1  0  0  0  0
  6 16  1  0  0  0  0
  7 11  1  0  0  0  0
  8 17  1  0  0  0  0
  9 18  1  0  0  0  0
 10 11  1  0  0  0  0
 10 17  1  0  0  0  0
 12 18  1  0  0  0  0
 14 18  2  0  0  0  0
 15 18  2  0  0  0  0
  2 19  1  0  0  0  0
  2 20  1  0  0  0  0
  3 21  1  0  0  0  0
  3 22  1  0  0  0  0
  4 23  1  0  0  0  0
  4 24  1  0  0  0  0
  5 25  1  0  0  0  0
  5 26  1  0  0  0  0
  6 27  1  0  0  0  0
  7 28  1  0  0  0  0
  7 29  1  0  0  0  0
  7 30  1  0  0  0  0
  8 31  1  0  0  0  0
  8 32  1  0  0  0  0
  8 33  1  0  0  0  0
  9 34  1  0  0  0  0
  9 35  1  0  0  0  0
 10 36  1  0  0  0  0
 10 37  1  0  0  0  0
 11 38  1  0  0  0  0
M  CHG  1  13  -1
M  END
> <Hybrid2>
-2.770397663116455

> <Hybrid2>
-2.770398

$$$$
C67003495
  -OEChem-02152218513D

 38 38  0     1  0  0  0  0  0999 V2000
    6.8201  -26.8466   -9.0497 C   0  0  0  0  0  0  0  0  0  0  0  0
   13.0204  -26.6601  -13.5666 C   0  0  0  0  0  0  0  0  0  0  0  0
   13.9112  -27.4152  -12.5865 C   0  0  0  0  0  0  0  0  0  0  0  0
   11.5505  -26.9765  -13.3078 C   0  0  0  0  0  0  0  0  0  0  0  0
   13.4427  -27.1966  -11.1541 C   0  0  0  0  0  0  0  0  0  0  0  0
   11.2063  -26.7717  -11.8307 C   0  0  1  0  0  0  0  0  0  0  0  0
    4.7879  -27.0387  -10.5371 C   0  0  0  0  0  0  0  0  0  0  0  0
    4.8114  -29.6449   -6.7137 C   0  0  0  0  0  0  0  0  0  0  0  0
    9.7725  -27.1924  -11.5390 C   0  0  0  0  0  0  0  0  0  0  0  0
    5.6589  -29.0839   -9.2599 C   0  0  0  0  0  0  0  0  0  0  0  0
    5.4480  -27.5600   -9.2557 C   0  0  1  0  0  0  0  0  0  0  0  0
    7.6727  -27.0998  -10.0074 N   0  0  0  0  0  0  0  0  0  0  0  0
    6.9312  -26.1397   -8.0232 O   0  5  0  0  0  0  0  0  0  0  0  0
    9.1285  -25.0398  -10.2389 O   0  0  0  0  0  0  0  0  0  0  0  0
    9.9759  -27.0397   -8.9555 O   0  0  0  0  0  0  0  0  0  0  0  0
   12.0707  -27.5628  -11.0081 O   0  0  0  0  0  0  0  0  0  0  0  0
    6.3292  -29.7152   -7.6917 S   0  0  0  0  0  0  0  0  0  0  0  0
    9.1785  -26.4752  -10.0291 S   0  0  0  0  0  0  0  0  0  0  0  0
   13.1864  -25.5817  -13.4543 H   0  0  0  0  0  0  0  0  0  0  0  0
   13.2867  -26.9219  -14.5965 H   0  0  0  0  0  0  0  0  0  0  0  0
   13.8600  -28.4857  -12.8210 H   0  0  0  0  0  0  0  0  0  0  0  0
   14.9539  -27.1006  -12.6991 H   0  0  0  0  0  0  0  0  0  0  0  0
   10.9145  -26.3501  -13.9431 H   0  0  0  0  0  0  0  0  0  0  0  0
   11.3682  -28.0221  -13.5875 H   0  0  0  0  0  0  0  0  0  0  0  0
   14.0286  -27.8204  -10.4717 H   0  0  0  0  0  0  0  0  0  0  0  0
   13.5764  -26.1532  -10.8455 H   0  0  0  0  0  0  0  0  0  0  0  0
   11.3217  -25.7169  -11.5539 H   0  0  0  0  0  0  0  0  0  0  0  0
    5.4012  -27.2758  -11.4135 H   0  0  0  0  0  0  0  0  0  0  0  0
    4.6597  -25.9511  -10.5093 H   0  0  0  0  0  0  0  0  0  0  0  0
    3.8042  -27.4917  -10.6922 H   0  0  0  0  0  0  0  0  0  0  0  0
    5.0071  -29.9967   -5.6979 H   0  0  0  0  0  0  0  0  0  0  0  0
    4.0467  -30.2790   -7.1693 H   0  0  0  0  0  0  0  0  0  0  0  0
    4.4444  -28.6166   -6.6715 H   0  0  0  0  0  0  0  0  0  0  0  0
    9.6973  -28.2781  -11.4315 H   0  0  0  0  0  0  0  0  0  0  0  0
    9.0992  -26.8678  -12.3369 H   0  0  0  0  0  0  0  0  0  0  0  0
    6.3359  -29.3855  -10.0666 H   0  0  0  0  0  0  0  0  0  0  0  0
    4.7041  -29.5923   -9.4349 H   0  0  0  0  0  0  0  0  0  0  0  0
    4.7934  -27.2960   -8.4118 H   0  0  0  0  0  0  0  0  0  0  0  0
  1 11  1  0  0  0  0
  1 12  2  0  0  0  0
  1 13  1  0  0  0  0
  2  3  1  0  0  0  0
  2  4  1  0  0  0  0
  3  5  1  0  0  0  0
  4  6  1  0  0  0  0
  5 16  1  0  0  0  0
  6  9  1  0  0  0  0
  6 16  1  0  0  0  0
  7 11  1  0  0  0  0
  8 17  1  0  0  0  0
  9 18  1  0  0  0  0
 10 11  1  0  0  0  0
 10 17  1  0  0  0  0
 12 18  1  0  0  0  0
 14 18  2  0  0  0  0
 15 18  2  0  0  0  0
  2 19  1  0  0  0  0
  2 20  1  0  0  0  0
  3 21  1  0  0  0  0
  3 22  1  0  0  0  0
  4 23  1  0  0  0  0
  4 24  1  0  0  0  0
  5 25  1  0  0  0  0
  5 26  1  0  0  0  0
  6 27  1  0  0  0  0
  7 28  1  0  0  0  0
  7 29  1  0  0  0  0
  7 30  1  0  0  0  0
  8 31  1  0  0  0  0
  8 32  1  0  0  0  0
  8 33  1  0  0  0  0
  9 34  1  0  0  0  0
  9 35  1  0  0  0  0
 10 36  1  0  0  0  0
 10 37  1  0  0  0  0
 11 38  1  0  0  0  0
M  CHG  1  13  -1
M  END
> <Hybrid2>
-2.770397663116455

> <Hybrid2>
-2.573230

$$$$
C67003497
  -OEChem-02152218513D

 38 38  0     1  0  0  0  0  0999 V2000
   11.8251  -25.3972  -12.5297 C   0  0  0  0  0  0  0  0  0  0  0  0
    5.8818  -27.6490   -8.2301 C   0  0  0  0  0  0  0  0  0  0  0  0
    4.8328  -26.9656   -9.1001 C   0  0  0  0  0  0  0  0  0  0  0  0
    7.1453  -27.9320   -9.0370 C   0  0  0  0  0  0  0  0  0  0  0  0
    5.4286  -25.7612   -9.8167 C   0  0  0  0  0  0  0  0  0  0  0  0
    7.6231  -26.6666   -9.7531 C   0  0  1  0  0  0  0  0  0  0  0  0
   12.0808  -26.8890  -14.5513 C   0  0  0  0  0  0  0  0  0  0  0  0
   14.9964  -27.9888  -10.2704 C   0  0  0  0  0  0  0  0  0  0  0  0
    8.8166  -26.9628  -10.6506 C   0  0  0  0  0  0  0  0  0  0  0  0
   13.5371  -27.2585  -12.4734 C   0  0  0  0  0  0  0  0  0  0  0  0
   12.8261  -26.2393  -13.3802 C   0  0  2  0  0  0  0  0  0  0  0  0
   10.8867  -26.1245  -11.9832 N   0  0  0  0  0  0  0  0  0  0  0  0
   12.0390  -24.1655  -12.4766 O   0  5  0  0  0  0  0  0  0  0  0  0
   10.2773  -24.9922   -9.8007 O   0  0  0  0  0  0  0  0  0  0  0  0
    8.8291  -24.6547  -11.8388 O   0  0  0  0  0  0  0  0  0  0  0  0
    6.5765  -26.1399  -10.5759 O   0  0  0  0  0  0  0  0  0  0  0  0
   14.4346  -26.4824  -11.0952 S   0  0  0  0  0  0  0  0  0  0  0  0
    9.7162  -25.4856  -11.0452 S   0  0  0  0  0  0  0  0  0  0  0  0
    6.1294  -27.0012   -7.3803 H   0  0  0  0  0  0  0  0  0  0  0  0
    5.4805  -28.5816   -7.8185 H   0  0  0  0  0  0  0  0  0  0  0  0
    4.4745  -27.6856   -9.8462 H   0  0  0  0  0  0  0  0  0  0  0  0
    3.9735  -26.6619   -8.4932 H   0  0  0  0  0  0  0  0  0  0  0  0
    7.9299  -28.3238   -8.3803 H   0  0  0  0  0  0  0  0  0  0  0  0
    6.9153  -28.7098   -9.7765 H   0  0  0  0  0  0  0  0  0  0  0  0
    4.6940  -25.3403  -10.5105 H   0  0  0  0  0  0  0  0  0  0  0  0
    5.7044  -24.9716   -9.1079 H   0  0  0  0  0  0  0  0  0  0  0  0
    7.9183  -25.9029   -9.0236 H   0  0  0  0  0  0  0  0  0  0  0  0
   11.3154  -27.5833  -14.1867 H   0  0  0  0  0  0  0  0  0  0  0  0
   12.7611  -27.4573  -15.1951 H   0  0  0  0  0  0  0  0  0  0  0  0
   11.5771  -26.1397  -15.1691 H   0  0  0  0  0  0  0  0  0  0  0  0
   15.5781  -27.7313   -9.3819 H   0  0  0  0  0  0  0  0  0  0  0  0
   15.6229  -28.5722  -10.9497 H   0  0  0  0  0  0  0  0  0  0  0  0
   14.1354  -28.5916   -9.9717 H   0  0  0  0  0  0  0  0  0  0  0  0
    8.4944  -27.4063  -11.5968 H   0  0  0  0  0  0  0  0  0  0  0  0
    9.5160  -27.6447  -10.1595 H   0  0  0  0  0  0  0  0  0  0  0  0
   14.2478  -27.8654  -13.0449 H   0  0  0  0  0  0  0  0  0  0  0  0
   12.8036  -27.9468  -12.0388 H   0  0  0  0  0  0  0  0  0  0  0  0
   13.5783  -25.5559  -13.8016 H   0  0  0  0  0  0  0  0  0  0  0  0
  1 11  1  0  0  0  0
  1 12  2  0  0  0  0
  1 13  1  0  0  0  0
  2  3  1  0  0  0  0
  2  4  1  0  0  0  0
  3  5  1  0  0  0  0
  4  6  1  0  0  0  0
  5 16  1  0  0  0  0
  6  9  1  0  0  0  0
  6 16  1  0  0  0  0
  7 11  1  0  0  0  0
  8 17  1  0  0  0  0
  9 18  1  0  0  0  0
 10 11  1  0  0  0  0
 10 17  1  0  0  0  0
 12 18  1  0  0  0  0
 14 18  2  0  0  0  0
 15 18  2  0  0  0  0
  2 19  1  0  0  0  0
  2 20  1  0  0  0  0
  3 21  1  0  0  0  0
  3 22  1  0  0  0  0
  4 23  1  0  0  0  0
  4 24  1  0  0  0  0
  5 25  1  0  0  0  0
  5 26  1  0  0  0  0
  6 27  1  0  0  0  0
  7 28  1  0  0  0  0
  7 29  1  0  0  0  0
  7 30  1  0  0  0  0
  8 31  1  0  0  0  0
  8 32  1  0  0  0  0
  8 33  1  0  0  0  0
  9 34  1  0  0  0  0
  9 35  1  0  0  0  0
 10 36  1  0  0  0  0
 10 37  1  0  0  0  0
 11 38  1  0  0  0  0
M  CHG  1  13  -1
M  END
> <Hybrid2>
-4.27894926071167

> <Hybrid2>
-4.278949

$$$$
C67003497
  -OEChem-02152218513D

 38 38  0     1  0  0  0  0  0999 V2000
   12.1705  -26.3649  -11.2122 C   0  0  0  0  0  0  0  0  0  0  0  0
    5.8789  -29.3246   -7.9662 C   0  0  0  0  0  0  0  0  0  0  0  0
    4.9310  -28.2946   -8.5701 C   0  0  0  0  0  0  0  0  0  0  0  0
    7.1453  -29.4461   -8.8084 C   0  0  0  0  0  0  0  0  0  0  0  0
    5.6594  -26.9847   -8.8395 C   0  0  0  0  0  0  0  0  0  0  0  0
    7.7615  -28.0676   -9.0582 C   0  0  1  0  0  0  0  0  0  0  0  0
   12.3783  -27.1235  -13.6121 C   0  0  0  0  0  0  0  0  0  0  0  0
   16.2018  -27.5805  -10.8725 C   0  0  0  0  0  0  0  0  0  0  0  0
    8.9608  -28.1647   -9.9910 C   0  0  0  0  0  0  0  0  0  0  0  0
   13.7089  -28.2966  -11.7605 C   0  0  0  0  0  0  0  0  0  0  0  0
   13.1283  -26.9716  -12.2841 C   0  0  2  0  0  0  0  0  0  0  0  0
   11.1500  -27.1377  -10.9481 N   0  0  0  0  0  0  0  0  0  0  0  0
   12.4891  -25.2465  -10.7505 O   0  5  0  0  0  0  0  0  0  0  0  0
   10.5519  -26.7357   -8.5196 O   0  0  0  0  0  0  0  0  0  0  0  0
    9.2250  -25.6065  -10.3442 O   0  0  0  0  0  0  0  0  0  0  0  0
    6.8003  -27.2006   -9.6698 O   0  0  0  0  0  0  0  0  0  0  0  0
   14.6128  -28.1091  -10.1937 S   0  0  0  0  0  0  0  0  0  0  0  0
   10.0020  -26.7342   -9.8630 S   0  0  0  0  0  0  0  0  0  0  0  0
    6.1468  -29.0205   -6.9469 H   0  0  0  0  0  0  0  0  0  0  0  0
    5.3807  -30.2974   -7.8920 H   0  0  0  0  0  0  0  0  0  0  0  0
    4.5424  -28.6900   -9.5167 H   0  0  0  0  0  0  0  0  0  0  0  0
    4.0772  -28.1267   -7.9054 H   0  0  0  0  0  0  0  0  0  0  0  0
    7.8645  -30.1064   -8.3113 H   0  0  0  0  0  0  0  0  0  0  0  0
    6.8790  -29.9103   -9.7667 H   0  0  0  0  0  0  0  0  0  0  0  0
    4.9941  -26.2896   -9.3613 H   0  0  0  0  0  0  0  0  0  0  0  0
    5.9736  -26.5037   -7.9058 H   0  0  0  0  0  0  0  0  0  0  0  0
    8.0920  -27.6196   -8.1134 H   0  0  0  0  0  0  0  0  0  0  0  0
   11.5405  -27.8218  -13.5068 H   0  0  0  0  0  0  0  0  0  0  0  0
   13.0323  -27.5103  -14.4012 H   0  0  0  0  0  0  0  0  0  0  0  0
   11.9683  -26.1673  -13.9508 H   0  0  0  0  0  0  0  0  0  0  0  0
   16.9137  -27.4083  -10.0615 H   0  0  0  0  0  0  0  0  0  0  0  0
   16.0742  -26.6538  -11.4374 H   0  0  0  0  0  0  0  0  0  0  0  0
   16.5969  -28.3527  -11.5370 H   0  0  0  0  0  0  0  0  0  0  0  0
    8.6405  -28.2380  -11.0340 H   0  0  0  0  0  0  0  0  0  0  0  0
    9.5767  -29.0347   -9.7475 H   0  0  0  0  0  0  0  0  0  0  0  0
   14.3868  -28.7464  -12.4940 H   0  0  0  0  0  0  0  0  0  0  0  0
   12.9005  -29.0155  -11.5869 H   0  0  0  0  0  0  0  0  0  0  0  0
   13.9544  -26.2634  -12.4467 H   0  0  0  0  0  0  0  0  0  0  0  0
  1 11  1  0  0  0  0
  1 12  2  0  0  0  0
  1 13  1  0  0  0  0
  2  3  1  0  0  0  0
  2  4  1  0  0  0  0
  3  5  1  0  0  0  0
  4  6  1  0  0  0  0
  5 16  1  0  0  0  0
  6  9  1  0  0  0  0
  6 16  1  0  0  0  0
  7 11  1  0  0  0  0
  8 17  1  0  0  0  0
  9 18  1  0  0  0  0
 10 11  1  0  0  0  0
 10 17  1  0  0  0  0
 12 18  1  0  0  0  0
 14 18  2  0  0  0  0
 15 18  2  0  0  0  0
  2 19  1  0  0  0  0
  2 20  1  0  0  0  0
  3 21  1  0  0  0  0
  3 22  1  0  0  0  0
  4 23  1  0  0  0  0
  4 24  1  0  0  0  0
  5 25  1  0  0  0  0
  5 26  1  0  0  0  0
  6 27  1  0  0  0  0
  7 28  1  0  0  0  0
  7 29  1  0  0  0  0
  7 30  1  0  0  0  0
  8 31  1  0  0  0  0
  8 32  1  0  0  0  0
  8 33  1  0  0  0  0
  9 34  1  0  0  0  0
  9 35  1  0  0  0  0
 10 36  1  0  0  0  0
 10 37  1  0  0  0  0
 11 38  1  0  0  0  0
M  CHG  1  13  -1
M  END
> <Hybrid2>
-4.27894926071167

> <Hybrid2>
-4.118520

$$$$
C11883823
  -OEChem-02152218513D

 39 41  0     0  0  0  0  0  0999 V2000
    8.6728  -28.7757  -11.0125 C   0  0  0  0  0  0  0  0  0  0  0  0
    8.4078  -27.6535   -8.8894 C   0  0  0  0  0  0  0  0  0  0  0  0
    8.1607  -29.9480  -10.4568 C   0  0  0  0  0  0  0  0  0  0  0  0
    7.8956  -28.8258   -8.3337 C   0  0  0  0  0  0  0  0  0  0  0  0
    8.7964  -27.6284  -10.2288 C   0  0  0  0  0  0  0  0  0  0  0  0
    7.7721  -29.9731   -9.1174 C   0  0  0  0  0  0  0  0  0  0  0  0
   13.1289  -27.2458  -11.5000 C   0  0  0  0  0  0  0  0  0  0  0  0
   12.5308  -26.8645  -12.6828 C   0  0  0  0  0  0  0  0  0  0  0  0
   10.8049  -26.6301  -11.3501 C   0  0  0  0  0  0  0  0  0  0  0  0
   14.5858  -27.6799  -11.3304 C   0  0  0  0  0  0  0  0  0  0  0  0
    7.2164  -24.1667  -10.5511 C   0  0  0  0  0  0  0  0  0  0  0  0
    7.0608  -25.3272  -11.5210 C   0  0  0  0  0  0  0  0  0  0  0  0
    8.1179  -24.5417   -9.3859 C   0  0  0  0  0  0  0  0  0  0  0  0
    8.4250  -25.8243  -12.0029 C   0  0  0  0  0  0  0  0  0  0  0  0
    9.4637  -25.1123   -9.8499 C   0  0  0  0  0  0  0  0  0  0  0  0
    9.3645  -26.3234  -10.8471 C   0  0  0  0  0  0  0  0  0  0  0  0
   13.1804  -26.8027  -14.0083 C   0  0  0  0  0  0  0  0  0  0  0  0
   11.1981  -26.5115  -12.5989 N   0  0  0  0  0  0  0  0  0  0  0  0
   14.8245  -28.9110  -11.4633 O   0  5  0  0  0  0  0  0  0  0  0  0
   15.4176  -26.7677  -11.0727 O   0  0  0  0  0  0  0  0  0  0  0  0
   11.9861  -27.1608  -10.2240 S   0  0  0  0  0  0  0  0  0  0  0  0
    7.1402  -31.4195   -8.4321 Cl  0  0  0  0  0  0  0  0  0  0  0  0
    8.9736  -28.7642  -12.0568 H   0  0  0  0  0  0  0  0  0  0  0  0
    8.5006  -26.7638   -8.2721 H   0  0  0  0  0  0  0  0  0  0  0  0
    8.0699  -30.8342  -11.0797 H   0  0  0  0  0  0  0  0  0  0  0  0
    7.5970  -28.8306   -7.2886 H   0  0  0  0  0  0  0  0  0  0  0  0
    7.6417  -23.3038  -11.0784 H   0  0  0  0  0  0  0  0  0  0  0  0
    6.2333  -23.8584  -10.1777 H   0  0  0  0  0  0  0  0  0  0  0  0
    6.5030  -26.1426  -11.0461 H   0  0  0  0  0  0  0  0  0  0  0  0
    6.4688  -25.0016  -12.3843 H   0  0  0  0  0  0  0  0  0  0  0  0
    8.2941  -23.6593   -8.7600 H   0  0  0  0  0  0  0  0  0  0  0  0
    7.6087  -25.2784   -8.7527 H   0  0  0  0  0  0  0  0  0  0  0  0
    8.2651  -26.6393  -12.7221 H   0  0  0  0  0  0  0  0  0  0  0  0
    8.9219  -25.0189  -12.5623 H   0  0  0  0  0  0  0  0  0  0  0  0
   10.0327  -24.3004  -10.3253 H   0  0  0  0  0  0  0  0  0  0  0  0
   10.0437  -25.4084   -8.9651 H   0  0  0  0  0  0  0  0  0  0  0  0
   13.0842  -27.7622  -14.5415 H   0  0  0  0  0  0  0  0  0  0  0  0
   12.7413  -26.0178  -14.6467 H   0  0  0  0  0  0  0  0  0  0  0  0
   14.2552  -26.5676  -13.9303 H   0  0  0  0  0  0  0  0  0  0  0  0
  1  3  2  0  0  0  0
  1  5  1  0  0  0  0
  2  4  1  0  0  0  0
  2  5  2  0  0  0  0
  3  6  1  0  0  0  0
  4  6  2  0  0  0  0
  5 16  1  0  0  0  0
  6 22  1  0  0  0  0
  7  8  2  0  0  0  0
  7 10  1  0  0  0  0
  7 21  1  0  0  0  0
  8 17  1  0  0  0  0
  8 18  1  0  0  0  0
  9 16  1  0  0  0  0
  9 18  2  0  0  0  0
  9 21  1  0  0  0  0
 10 19  1  0  0  0  0
 10 20  2  0  0  0  0
 11 12  1  0  0  0  0
 11 13  1  0  0  0  0
 12 14  1  0  0  0  0
 13 15  1  0  0  0  0
 14 16  1  0  0  0  0
 15 16  1  0  0  0  0
  1 23  1  0  0  0  0
  2 24  1  0  0  0  0
  3 25  1  0  0  0  0
  4 26  1  0  0  0  0
 11 27  1  0  0  0  0
 11 28  1  0  0  0  0
 12 29  1  0  0  0  0
 12 30  1  0  0  0  0
 13 31  1  0  0  0  0
 13 32  1  0  0  0  0
 14 33  1  0  0  0  0
 14 34  1  0  0  0  0
 15 35  1  0  0  0  0
 15 36  1  0  0  0  0
 17 37  1  0  0  0  0
 17 38  1  0  0  0  0
 17 39  1  0  0  0  0
M  CHG  1  19  -1
M  END
> <Hybrid2>
-3.9500491619110107

> <Hybrid2>
-3.950049

$$$$
C11883823
  -OEChem-02152218513D

 39 41  0     0  0  0  0  0  0999 V2000
   11.3376  -27.2114  -11.6101 C   0  0  0  0  0  0  0  0  0  0  0  0
   11.6369  -26.4177   -9.3479 C   0  0  0  0  0  0  0  0  0  0  0  0
   12.6441  -27.6999  -11.6115 C   0  0  0  0  0  0  0  0  0  0  0  0
   12.9434  -26.9062   -9.3493 C   0  0  0  0  0  0  0  0  0  0  0  0
   10.8340  -26.5702  -10.4783 C   0  0  0  0  0  0  0  0  0  0  0  0
   13.4470  -27.5473  -10.4811 C   0  0  0  0  0  0  0  0  0  0  0  0
    6.6725  -28.4216   -8.9302 C   0  0  0  0  0  0  0  0  0  0  0  0
    7.6687  -29.1674   -9.5247 C   0  0  0  0  0  0  0  0  0  0  0  0
    8.4555  -27.1655   -9.9529 C   0  0  0  0  0  0  0  0  0  0  0  0
    5.4388  -28.9783   -8.2176 C   0  0  0  0  0  0  0  0  0  0  0  0
    9.4761  -23.1625  -11.5396 C   0  0  0  0  0  0  0  0  0  0  0  0
   10.0313  -23.5306  -10.1729 C   0  0  0  0  0  0  0  0  0  0  0  0
    9.5105  -24.3523  -12.4851 C   0  0  0  0  0  0  0  0  0  0  0  0
    9.2915  -24.7351   -9.5880 C   0  0  0  0  0  0  0  0  0  0  0  0
    8.8379  -25.5933  -11.8855 C   0  0  0  0  0  0  0  0  0  0  0  0
    9.3800  -26.0281  -10.4756 C   0  0  0  0  0  0  0  0  0  0  0  0
    7.7349  -30.6420   -9.5873 C   0  0  0  0  0  0  0  0  0  0  0  0
    8.6917  -28.4489  -10.1121 N   0  0  0  0  0  0  0  0  0  0  0  0
    4.6383  -28.1315   -7.7356 O   0  5  0  0  0  0  0  0  0  0  0  0
    5.3330  -30.2343   -8.1758 O   0  0  0  0  0  0  0  0  0  0  0  0
    7.0215  -26.7517   -9.1060 S   0  0  0  0  0  0  0  0  0  0  0  0
   15.0586  -28.1502  -10.4831 Cl  0  0  0  0  0  0  0  0  0  0  0  0
   10.7184  -27.3340  -12.4948 H   0  0  0  0  0  0  0  0  0  0  0  0
   11.2520  -25.9195   -8.4619 H   0  0  0  0  0  0  0  0  0  0  0  0
   13.0228  -28.1976  -12.5005 H   0  0  0  0  0  0  0  0  0  0  0  0
   13.5574  -26.7800   -8.4613 H   0  0  0  0  0  0  0  0  0  0  0  0
    8.4422  -22.8117  -11.4321 H   0  0  0  0  0  0  0  0  0  0  0  0
   10.0512  -22.3319  -11.9643 H   0  0  0  0  0  0  0  0  0  0  0  0
   11.1047  -23.7403  -10.2465 H   0  0  0  0  0  0  0  0  0  0  0  0
    9.9233  -22.6757   -9.4951 H   0  0  0  0  0  0  0  0  0  0  0  0
    9.0127  -24.0880  -13.4252 H   0  0  0  0  0  0  0  0  0  0  0  0
   10.5515  -24.5882  -12.7374 H   0  0  0  0  0  0  0  0  0  0  0  0
    9.7026  -24.9466   -8.5913 H   0  0  0  0  0  0  0  0  0  0  0  0
    8.2374  -24.4654   -9.4306 H   0  0  0  0  0  0  0  0  0  0  0  0
    7.7592  -25.3938  -11.8104 H   0  0  0  0  0  0  0  0  0  0  0  0
    8.9414  -26.4262  -12.5944 H   0  0  0  0  0  0  0  0  0  0  0  0
    7.2337  -31.0229  -10.4916 H   0  0  0  0  0  0  0  0  0  0  0  0
    8.7752  -31.0080   -9.6000 H   0  0  0  0  0  0  0  0  0  0  0  0
    7.2555  -31.1138   -8.7131 H   0  0  0  0  0  0  0  0  0  0  0  0
  1  3  2  0  0  0  0
  1  5  1  0  0  0  0
  2  4  1  0  0  0  0
  2  5  2  0  0  0  0
  3  6  1  0  0  0  0
  4  6  2  0  0  0  0
  5 16  1  0  0  0  0
  6 22  1  0  0  0  0
  7  8  2  0  0  0  0
  7 10  1  0  0  0  0
  7 21  1  0  0  0  0
  8 17  1  0  0  0  0
  8 18  1  0  0  0  0
  9 16  1  0  0  0  0
  9 18  2  0  0  0  0
  9 21  1  0  0  0  0
 10 19  1  0  0  0  0
 10 20  2  0  0  0  0
 11 12  1  0  0  0  0
 11 13  1  0  0  0  0
 12 14  1  0  0  0  0
 13 15  1  0  0  0  0
 14 16  1  0  0  0  0
 15 16  1  0  0  0  0
  1 23  1  0  0  0  0
  2 24  1  0  0  0  0
  3 25  1  0  0  0  0
  4 26  1  0  0  0  0
 11 27  1  0  0  0  0
 11 28  1  0  0  0  0
 12 29  1  0  0  0  0
 12 30  1  0  0  0  0
 13 31  1  0  0  0  0
 13 32  1  0  0  0  0
 14 33  1  0  0  0  0
 14 34  1  0  0  0  0
 15 35  1  0  0  0  0
 15 36  1  0  0  0  0
 17 37  1  0  0  0  0
 17 38  1  0  0  0  0
 17 39  1  0  0  0  0
M  CHG  1  19  -1
M  END
> <Hybrid2>
-3.9500491619110107

> <Hybrid2>
-3.298062

$$$$
C15161037
  -OEChem-02152218513D

 50 52  0     1  0  0  0  0  0999 V2000
    6.7305  -28.5088   -8.0879 C   0  0  0  0  0  0  0  0  0  0  0  0
    5.9405  -29.5912   -7.7777 C   0  0  0  0  0  0  0  0  0  0  0  0
    5.1693  -28.7973   -9.6551 C   0  0  0  0  0  0  0  0  0  0  0  0
    6.2296  -27.9931   -9.3071 C   0  0  0  0  0  0  0  0  0  0  0  0
   11.2637  -25.8374  -11.6942 C   0  0  0  0  0  0  0  0  0  0  0  0
   10.0013  -26.2127  -12.0208 C   0  0  0  0  0  0  0  0  0  0  0  0
   13.2759  -27.2604  -11.7339 C   0  0  0  0  0  0  0  0  0  0  0  0
   11.5572  -24.9858  -10.4765 C   0  0  0  0  0  0  0  0  0  0  0  0
    9.7454  -27.1010  -13.2290 C   0  0  0  0  0  0  0  0  0  0  0  0
   10.4031  -24.8581   -9.4945 C   0  0  0  0  0  0  0  0  0  0  0  0
   10.9687  -27.8611  -13.7257 C   0  0  0  0  0  0  0  0  0  0  0  0
   12.1523  -26.9185  -13.8613 C   0  0  0  0  0  0  0  0  0  0  0  0
    9.0935  -24.5895  -10.2385 C   0  0  1  0  0  0  0  0  0  0  0  0
   12.4812  -26.2266  -12.5303 C   0  0  1  0  0  0  0  0  0  0  0  0
    8.7506  -25.7742  -11.2118 C   0  0  1  0  0  0  0  0  0  0  0  0
    8.0027  -24.2425   -9.2157 C   0  0  0  0  0  0  0  0  0  0  0  0
   13.4514  -25.0700  -12.7959 C   0  0  0  0  0  0  0  0  0  0  0  0
    7.6386  -25.2922  -12.1763 C   0  0  0  0  0  0  0  0  0  0  0  0
    6.7514  -26.8029  -10.0718 C   0  0  0  0  0  0  0  0  0  0  0  0
    8.2154  -26.9991  -10.4331 C   0  0  0  0  0  0  0  0  0  0  0  0
   14.3227  -27.6859  -12.2964 O   0  5  0  0  0  0  0  0  0  0  0  0
   12.7815  -27.5577  -10.6103 O   0  0  0  0  0  0  0  0  0  0  0  0
    4.9865  -29.7739   -8.7280 O   0  0  0  0  0  0  0  0  0  0  0  0
    7.5629  -28.1404   -7.5053 H   0  0  0  0  0  0  0  0  0  0  0  0
    5.9277  -30.2978   -6.9607 H   0  0  0  0  0  0  0  0  0  0  0  0
    4.4784  -28.8086  -10.4858 H   0  0  0  0  0  0  0  0  0  0  0  0
   12.4186  -25.3872   -9.9301 H   0  0  0  0  0  0  0  0  0  0  0  0
   11.8351  -23.9803  -10.8171 H   0  0  0  0  0  0  0  0  0  0  0  0
    8.9716  -27.8431  -13.0099 H   0  0  0  0  0  0  0  0  0  0  0  0
    9.3643  -26.4733  -14.0445 H   0  0  0  0  0  0  0  0  0  0  0  0
   10.3261  -25.7682   -8.8876 H   0  0  0  0  0  0  0  0  0  0  0  0
   10.6235  -24.0407   -8.7965 H   0  0  0  0  0  0  0  0  0  0  0  0
   11.2087  -28.6777  -13.0339 H   0  0  0  0  0  0  0  0  0  0  0  0
   10.7465  -28.3234  -14.6944 H   0  0  0  0  0  0  0  0  0  0  0  0
   13.0156  -27.4796  -14.2424 H   0  0  0  0  0  0  0  0  0  0  0  0
   11.9132  -26.1639  -14.6232 H   0  0  0  0  0  0  0  0  0  0  0  0
    9.2434  -23.6862  -10.8489 H   0  0  0  0  0  0  0  0  0  0  0  0
    7.8135  -25.1046   -8.5826 H   0  0  0  0  0  0  0  0  0  0  0  0
    7.0907  -23.9695   -9.7386 H   0  0  0  0  0  0  0  0  0  0  0  0
    8.3336  -23.4085   -8.6035 H   0  0  0  0  0  0  0  0  0  0  0  0
   14.2864  -25.4259  -13.3937 H   0  0  0  0  0  0  0  0  0  0  0  0
   13.8231  -24.6831  -11.8507 H   0  0  0  0  0  0  0  0  0  0  0  0
   12.9349  -24.2782  -13.3322 H   0  0  0  0  0  0  0  0  0  0  0  0
    6.7786  -24.9922  -11.5929 H   0  0  0  0  0  0  0  0  0  0  0  0
    7.3752  -26.1065  -12.8377 H   0  0  0  0  0  0  0  0  0  0  0  0
    8.0134  -24.4535  -12.7474 H   0  0  0  0  0  0  0  0  0  0  0  0
    6.1520  -26.6538  -10.9794 H   0  0  0  0  0  0  0  0  0  0  0  0
    6.6263  -25.8924   -9.4715 H   0  0  0  0  0  0  0  0  0  0  0  0
    8.8295  -27.1213   -9.5427 H   0  0  0  0  0  0  0  0  0  0  0  0
    8.3540  -27.8780  -11.0600 H   0  0  0  0  0  0  0  0  0  0  0  0
  1  2  2  0  0  0  0
  1  4  1  0  0  0  0
  2 23  1  0  0  0  0
  3  4  2  0  0  0  0
  3 23  1  0  0  0  0
  4 19  1  0  0  0  0
  5  6  2  0  0  0  0
  5  8  1  0  0  0  0
  5 14  1  0  0  0  0
  6  9  1  0  0  0  0
  6 15  1  0  0  0  0
  7 14  1  0  0  0  0
  7 21  1  0  0  0  0
  7 22  2  0  0  0  0
  8 10  1  0  0  0  0
  9 11  1  0  0  0  0
 10 13  1  0  0  0  0
 11 12  1  0  0  0  0
 12 14  1  0  0  0  0
 13 15  1  0  0  0  0
 13 16  1  0  0  0  0
 14 17  1  0  0  0  0
 15 18  1  0  0  0  0
 15 20  1  0  0  0  0
 19 20  1  0  0  0  0
  1 24  1  0  0  0  0
  2 25  1  0  0  0  0
  3 26  1  0  0  0  0
  8 27  1  0  0  0  0
  8 28  1  0  0  0  0
  9 29  1  0  0  0  0
  9 30  1  0  0  0  0
 10 31  1  0  0  0  0
 10 32  1  0  0  0  0
 11 33  1  0  0  0  0
 11 34  1  0  0  0  0
 12 35  1  0  0  0  0
 12 36  1  0  0  0  0
 13 37  1  0  0  0  0
 16 38  1  0  0  0  0
 16 39  1  0  0  0  0
 16 40  1  0  0  0  0
 17 41  1  0  0  0  0
 17 42  1  0  0  0  0
 17 43  1  0  0  0  0
 18 44  1  0  0  0  0
 18 45  1  0  0  0  0
 18 46  1  0  0  0  0
 19 47  1  0  0  0  0
 19 48  1  0  0  0  0
 20 49  1  0  0  0  0
 20 50  1  0  0  0  0
M  CHG  1  21  -1
M  END
> <Hybrid2>
-3.581066131591797

> <Hybrid2>
-3.581066

$$$$
C15161037
  -OEChem-02152218513D

 50 52  0     1  0  0  0  0  0999 V2000
   12.3851  -27.3415  -12.2815 C   0  0  0  0  0  0  0  0  0  0  0  0
   13.6785  -27.7112  -12.5685 C   0  0  0  0  0  0  0  0  0  0  0  0
   13.7036  -26.9599  -10.5229 C   0  0  0  0  0  0  0  0  0  0  0  0
   12.4014  -26.8535  -10.9531 C   0  0  0  0  0  0  0  0  0  0  0  0
    6.4822  -27.5215   -9.1035 C   0  0  0  0  0  0  0  0  0  0  0  0
    7.7968  -27.8650   -9.0808 C   0  0  0  0  0  0  0  0  0  0  0  0
    4.7360  -28.8180  -10.2589 C   0  0  0  0  0  0  0  0  0  0  0  0
    6.0265  -26.0907   -9.3386 C   0  0  0  0  0  0  0  0  0  0  0  0
    8.2294  -29.3005   -8.8304 C   0  0  0  0  0  0  0  0  0  0  0  0
    7.1256  -25.0347   -9.3080 C   0  0  0  0  0  0  0  0  0  0  0  0
    7.1379  -30.3426   -9.0396 C   0  0  0  0  0  0  0  0  0  0  0  0
    5.8457  -29.9083   -8.3741 C   0  0  0  0  0  0  0  0  0  0  0  0
    8.4131  -25.5259   -9.9698 C   0  0  1  0  0  0  0  0  0  0  0  0
    5.3658  -28.5455   -8.8938 C   0  0  1  0  0  0  0  0  0  0  0  0
    8.9296  -26.8261   -9.2608 C   0  0  1  0  0  0  0  0  0  0  0  0
    8.1936  -25.6817  -11.4858 C   0  0  0  0  0  0  0  0  0  0  0  0
    4.2071  -28.0703   -8.0078 C   0  0  0  0  0  0  0  0  0  0  0  0
    9.4591  -26.4691   -7.8488 C   0  0  0  0  0  0  0  0  0  0  0  0
   11.2293  -26.3236  -10.1662 C   0  0  0  0  0  0  0  0  0  0  0  0
   10.1350  -27.3745  -10.0634 C   0  0  0  0  0  0  0  0  0  0  0  0
    3.7879  -29.6512  -10.2586 O   0  5  0  0  0  0  0  0  0  0  0  0
    5.2470  -28.1719  -11.2164 O   0  0  0  0  0  0  0  0  0  0  0  0
   14.4884  -27.4819  -11.5018 O   0  0  0  0  0  0  0  0  0  0  0  0
   11.5387  -27.4160  -12.9493 H   0  0  0  0  0  0  0  0  0  0  0  0
   14.1603  -28.1313  -13.4393 H   0  0  0  0  0  0  0  0  0  0  0  0
   14.2092  -26.7212   -9.5984 H   0  0  0  0  0  0  0  0  0  0  0  0
    5.5145  -26.0110  -10.3079 H   0  0  0  0  0  0  0  0  0  0  0  0
    5.2819  -25.8368   -8.5695 H   0  0  0  0  0  0  0  0  0  0  0  0
    9.0658  -29.5751   -9.4827 H   0  0  0  0  0  0  0  0  0  0  0  0
    8.5957  -29.3759   -7.7973 H   0  0  0  0  0  0  0  0  0  0  0  0
    6.7659  -24.1114   -9.7934 H   0  0  0  0  0  0  0  0  0  0  0  0
    7.3142  -24.7577   -8.2563 H   0  0  0  0  0  0  0  0  0  0  0  0
    6.9779  -30.5054  -10.1152 H   0  0  0  0  0  0  0  0  0  0  0  0
    7.4661  -31.3063   -8.6263 H   0  0  0  0  0  0  0  0  0  0  0  0
    5.0831  -30.6842   -8.5295 H   0  0  0  0  0  0  0  0  0  0  0  0
    6.0113  -29.8540   -7.2883 H   0  0  0  0  0  0  0  0  0  0  0  0
    9.1744  -24.7499   -9.8430 H   0  0  0  0  0  0  0  0  0  0  0  0
    7.4422  -26.4451  -11.6655 H   0  0  0  0  0  0  0  0  0  0  0  0
    9.1272  -25.9736  -11.9579 H   0  0  0  0  0  0  0  0  0  0  0  0
    7.8569  -24.7363  -11.9012 H   0  0  0  0  0  0  0  0  0  0  0  0
    3.4686  -28.8628   -7.9191 H   0  0  0  0  0  0  0  0  0  0  0  0
    3.7442  -27.1939   -8.4539 H   0  0  0  0  0  0  0  0  0  0  0  0
    4.5847  -27.8165   -7.0208 H   0  0  0  0  0  0  0  0  0  0  0  0
   10.2539  -25.7424   -7.9492 H   0  0  0  0  0  0  0  0  0  0  0  0
    9.8333  -27.3692   -7.3802 H   0  0  0  0  0  0  0  0  0  0  0  0
    8.6462  -26.0555   -7.2672 H   0  0  0  0  0  0  0  0  0  0  0  0
   11.5617  -26.0209   -9.1647 H   0  0  0  0  0  0  0  0  0  0  0  0
   10.8409  -25.4155  -10.6455 H   0  0  0  0  0  0  0  0  0  0  0  0
    9.7738  -27.6668  -11.0477 H   0  0  0  0  0  0  0  0  0  0  0  0
   10.4921  -28.2694   -9.5572 H   0  0  0  0  0  0  0  0  0  0  0  0
  1  2  2  0  0  0  0
  1  4  1  0  0  0  0
  2 23  1  0  0  0  0
  3  4  2  0  0  0  0
  3 23  1  0  0  0  0
  4 19  1  0  0  0  0
  5  6  2  0  0  0  0
  5  8  1  0  0  0  0
  5 14  1  0  0  0  0
  6  9  1  0  0  0  0
  6 15  1  0  0  0  0
  7 14  1  0  0  0  0
  7 21  1  0  0  0  0
  7 22  2  0  0  0  0
  8 10  1  0  0  0  0
  9 11  1  0  0  0  0
 10 13  1  0  0  0  0
 11 12  1  0  0  0  0
 12 14  1  0  0  0  0
 13 15  1  0  0  0  0
 13 16  1  0  0  0  0
 14 17  1  0  0  0  0
 15 18  1  0  0  0  0
 15 20  1  0  0  0  0
 19 20  1  0  0  0  0
  1 24  1  0  0  0  0
  2 25  1  0  0  0  0
  3 26  1  0  0  0  0
  8 27  1  0  0  0  0
  8 28  1  0  0  0  0
  9 29  1  0  0  0  0
  9 30  1  0  0  0  0
 10 31  1  0  0  0  0
 10 32  1  0  0  0  0
 11 33  1  0  0  0  0
 11 34  1  0  0  0  0
 12 35  1  0  0  0  0
 12 36  1  0  0  0  0
 13 37  1  0  0  0  0
 16 38  1  0  0  0  0
 16 39  1  0  0  0  0
 16 40  1  0  0  0  0
 17 41  1  0  0  0  0
 17 42  1  0  0  0  0
 17 43  1  0  0  0  0
 18 44  1  0  0  0  0
 18 45  1  0  0  0  0
 18 46  1  0  0  0  0
 19 47  1  0  0  0  0
 19 48  1  0  0  0  0
 20 49  1  0  0  0  0
 20 50  1  0  0  0  0
M  CHG  1  21  -1
M  END
> <Hybrid2>
-3.581066131591797

> <Hybrid2>
-2.771732

$$$$
C06184743
  -OEChem-02152218513D

 31 33  0     0  0  0  0  0  0999 V2000
    6.3782  -28.5415   -7.9758 C   0  0  0  0  0  0  0  0  0  0  0  0
    7.3266  -29.1793  -10.1044 C   0  0  0  0  0  0  0  0  0  0  0  0
   10.9763  -27.0677   -9.1004 C   0  0  0  0  0  0  0  0  0  0  0  0
    9.6228  -26.7334   -9.0577 C   0  0  0  0  0  0  0  0  0  0  0  0
    6.5507  -29.8444   -7.5086 C   0  0  0  0  0  0  0  0  0  0  0  0
    7.4992  -30.4822   -9.6371 C   0  0  0  0  0  0  0  0  0  0  0  0
    9.6368  -26.3715  -11.4464 C   0  0  0  0  0  0  0  0  0  0  0  0
    6.7661  -28.2090   -9.2738 C   0  0  0  0  0  0  0  0  0  0  0  0
   11.6601  -27.0538  -10.3161 C   0  0  0  0  0  0  0  0  0  0  0  0
    8.9530  -26.3853  -10.2307 C   0  0  0  0  0  0  0  0  0  0  0  0
    7.1112  -30.8147   -8.3392 C   0  0  0  0  0  0  0  0  0  0  0  0
   10.9904  -26.7057  -11.4891 C   0  0  0  0  0  0  0  0  0  0  0  0
    6.5878  -26.8617   -9.7573 C   0  0  0  0  0  0  0  0  0  0  0  0
    6.9977  -24.8840  -10.5509 C   0  0  0  0  0  0  0  0  0  0  0  0
   13.1098  -27.4173  -10.3191 C   0  0  0  0  0  0  0  0  0  0  0  0
    5.4402  -26.2288   -9.8522 N   0  0  0  0  0  0  0  0  0  0  0  0
    5.7010  -24.9706  -10.3570 N   0  0  0  0  0  0  0  0  0  0  0  0
    7.5954  -26.0523  -10.1867 N   0  0  0  0  0  0  0  0  0  0  0  0
    7.8052  -23.5191  -11.1639 S   0  5  0  0  0  0  0  0  0  0  0  0
    7.3258  -32.4218   -7.7623 Cl  0  0  0  0  0  0  0  0  0  0  0  0
   11.8037  -26.6801  -13.0114 Cl  0  0  0  0  0  0  0  0  0  0  0  0
    5.9397  -27.7966   -7.3163 H   0  0  0  0  0  0  0  0  0  0  0  0
    7.6336  -28.9350  -11.1188 H   0  0  0  0  0  0  0  0  0  0  0  0
   11.4898  -27.3358   -8.1807 H   0  0  0  0  0  0  0  0  0  0  0  0
    9.1030  -26.7470   -8.1028 H   0  0  0  0  0  0  0  0  0  0  0  0
    6.2431  -30.0892   -6.4949 H   0  0  0  0  0  0  0  0  0  0  0  0
    7.9368  -31.2281  -10.2955 H   0  0  0  0  0  0  0  0  0  0  0  0
    9.1117  -26.0987  -12.3599 H   0  0  0  0  0  0  0  0  0  0  0  0
   13.2295  -28.4960  -10.4704 H   0  0  0  0  0  0  0  0  0  0  0  0
   13.6480  -26.8897  -11.1156 H   0  0  0  0  0  0  0  0  0  0  0  0
   13.5885  -27.1409   -9.3718 H   0  0  0  0  0  0  0  0  0  0  0  0
  1  5  2  0  0  0  0
  1  8  1  0  0  0  0
  2  6  1  0  0  0  0
  2  8  2  0  0  0  0
  3  4  2  0  0  0  0
  3  9  1  0  0  0  0
  4 10  1  0  0  0  0
  5 11  1  0  0  0  0
  6 11  2  0  0  0  0
  7 10  2  0  0  0  0
  7 12  1  0  0  0  0
  8 13  1  0  0  0  0
  9 12  2  0  0  0  0
  9 15  1  0  0  0  0
 10 18  1  0  0  0  0
 11 20  1  0  0  0  0
 12 21  1  0  0  0  0
 13 16  2  0  0  0  0
 13 18  1  0  0  0  0
 14 17  2  0  0  0  0
 14 18  1  0  0  0  0
 14 19  1  0  0  0  0
 16 17  1  0  0  0  0
  1 22  1  0  0  0  0
  2 23  1  0  0  0  0
  3 24  1  0  0  0  0
  4 25  1  0  0  0  0
  5 26  1  0  0  0  0
  6 27  1  0  0  0  0
  7 28  1  0  0  0  0
 15 29  1  0  0  0  0
 15 30  1  0  0  0  0
 15 31  1  0  0  0  0
M  CHG  1  19  -1
M  END
> <Hybrid2>
-5.988257884979248

> <Hybrid2>
-5.988258

$$$$
C06184743
  -OEChem-02152218513D

 31 33  0     0  0  0  0  0  0999 V2000
    9.1231  -26.2194  -11.6336 C   0  0  0  0  0  0  0  0  0  0  0  0
    9.2280  -26.5096   -9.2374 C   0  0  0  0  0  0  0  0  0  0  0  0
    6.3030  -29.6403   -7.4659 C   0  0  0  0  0  0  0  0  0  0  0  0
    6.0674  -28.3591   -7.9644 C   0  0  0  0  0  0  0  0  0  0  0  0
   10.4846  -26.5072  -11.7281 C   0  0  0  0  0  0  0  0  0  0  0  0
   10.5896  -26.7974   -9.3319 C   0  0  0  0  0  0  0  0  0  0  0  0
    6.9416  -29.0343  -10.1131 C   0  0  0  0  0  0  0  0  0  0  0  0
    8.4948  -26.2205  -10.3882 C   0  0  0  0  0  0  0  0  0  0  0  0
    6.8580  -30.6186   -8.2909 C   0  0  0  0  0  0  0  0  0  0  0  0
    6.3867  -28.0561   -9.2880 C   0  0  0  0  0  0  0  0  0  0  0  0
   11.2179  -26.7962  -10.5773 C   0  0  0  0  0  0  0  0  0  0  0  0
    7.1773  -30.3156   -9.6145 C   0  0  0  0  0  0  0  0  0  0  0  0
    7.0868  -25.9227  -10.2901 C   0  0  0  0  0  0  0  0  0  0  0  0
    4.9639  -26.1049   -9.8784 C   0  0  0  0  0  0  0  0  0  0  0  0
    7.0957  -31.9785   -7.7183 C   0  0  0  0  0  0  0  0  0  0  0  0
    6.5139  -24.8022  -10.6677 N   0  0  0  0  0  0  0  0  0  0  0  0
    5.1633  -24.9181  -10.4058 N   0  0  0  0  0  0  0  0  0  0  0  0
    6.1480  -26.7716   -9.7871 N   0  0  0  0  0  0  0  0  0  0  0  0
    3.4552  -26.7143   -9.3852 S   0  5  0  0  0  0  0  0  0  0  0  0
   12.8973  -27.1532  -10.6938 Cl  0  0  0  0  0  0  0  0  0  0  0  0
    7.8630  -31.5014  -10.6649 Cl  0  0  0  0  0  0  0  0  0  0  0  0
    8.5653  -25.9959  -12.5398 H   0  0  0  0  0  0  0  0  0  0  0  0
    8.7520  -26.5139   -8.2595 H   0  0  0  0  0  0  0  0  0  0  0  0
    6.0525  -29.8661   -6.4326 H   0  0  0  0  0  0  0  0  0  0  0  0
    5.6358  -27.6061   -7.3094 H   0  0  0  0  0  0  0  0  0  0  0  0
   10.9610  -26.5019  -12.7054 H   0  0  0  0  0  0  0  0  0  0  0  0
   11.1486  -27.0204   -8.4268 H   0  0  0  0  0  0  0  0  0  0  0  0
    7.1904  -28.7947  -11.1452 H   0  0  0  0  0  0  0  0  0  0  0  0
    6.2133  -32.6111   -7.8659 H   0  0  0  0  0  0  0  0  0  0  0  0
    7.9574  -32.4624   -8.1936 H   0  0  0  0  0  0  0  0  0  0  0  0
    7.3117  -31.9230   -6.6445 H   0  0  0  0  0  0  0  0  0  0  0  0
  1  5  2  0  0  0  0
  1  8  1  0  0  0  0
  2  6  1  0  0  0  0
  2  8  2  0  0  0  0
  3  4  2  0  0  0  0
  3  9  1  0  0  0  0
  4 10  1  0  0  0  0
  5 11  1  0  0  0  0
  6 11  2  0  0  0  0
  7 10  2  0  0  0  0
  7 12  1  0  0  0  0
  8 13  1  0  0  0  0
  9 12  2  0  0  0  0
  9 15  1  0  0  0  0
 10 18  1  0  0  0  0
 11 20  1  0  0  0  0
 12 21  1  0  0  0  0
 13 16  2  0  0  0  0
 13 18  1  0  0  0  0
 14 17  2  0  0  0  0
 14 18  1  0  0  0  0
 14 19  1  0  0  0  0
 16 17  1  0  0  0  0
  1 22  1  0  0  0  0
  2 23  1  0  0  0  0
  3 24  1  0  0  0  0
  4 25  1  0  0  0  0
  5 26  1  0  0  0  0
  6 27  1  0  0  0  0
  7 28  1  0  0  0  0
 15 29  1  0  0  0  0
 15 30  1  0  0  0  0
 15 31  1  0  0  0  0
M  CHG  1  19  -1
M  END
> <Hybrid2>
-5.988257884979248

> <Hybrid2>
-5.738629

$$$$
C13465952
  -OEChem-02152218513D

 33 34  0     0  0  0  0  0  0999 V2000
    9.2786  -27.2682   -9.4806 C   0  0  0  0  0  0  0  0  0  0  0  0
    8.8063  -28.5806   -9.4890 C   0  0  0  0  0  0  0  0  0  0  0  0
    6.5336  -27.7630   -9.4310 C   0  0  0  0  0  0  0  0  0  0  0  0
   11.2037  -26.7981  -13.5266 C   0  0  0  0  0  0  0  0  0  0  0  0
    8.3784  -26.2032   -9.4473 C   0  0  0  0  0  0  0  0  0  0  0  0
    7.4338  -28.8280   -9.4642 C   0  0  0  0  0  0  0  0  0  0  0  0
    7.0059  -26.4506   -9.4226 C   0  0  0  0  0  0  0  0  0  0  0  0
   11.7355  -26.1222  -12.4474 C   0  0  0  0  0  0  0  0  0  0  0  0
    9.8720  -26.5494  -13.7896 C   0  0  0  0  0  0  0  0  0  0  0  0
    9.7427  -25.1090  -12.0358 C   0  0  0  0  0  0  0  0  0  0  0  0
   14.8162  -27.7093  -10.7457 C   0  0  0  0  0  0  0  0  0  0  0  0
    8.9249  -24.8119   -9.4366 C   0  0  0  0  0  0  0  0  0  0  0  0
   13.1681  -26.3263  -12.0845 C   0  0  0  0  0  0  0  0  0  0  0  0
   13.3525  -27.4808  -11.0881 C   0  0  0  0  0  0  0  0  0  0  0  0
   11.0311  -25.2671  -11.6774 N   0  0  0  0  0  0  0  0  0  0  0  0
    9.1087  -25.7079  -13.0619 N   0  0  0  0  0  0  0  0  0  0  0  0
    9.2701  -27.1172  -14.7632 O   0  5  0  0  0  0  0  0  0  0  0  0
    8.7818  -23.9981  -11.0554 S   0  0  0  0  0  0  0  0  0  0  0  0
    6.8513  -30.4474   -9.4764 Cl  0  0  0  0  0  0  0  0  0  0  0  0
    5.8621  -25.1584   -9.3797 Cl  0  0  0  0  0  0  0  0  0  0  0  0
   10.3502  -27.0863   -9.4982 H   0  0  0  0  0  0  0  0  0  0  0  0
    9.5193  -29.4007   -9.5157 H   0  0  0  0  0  0  0  0  0  0  0  0
    5.4633  -27.9577   -9.4109 H   0  0  0  0  0  0  0  0  0  0  0  0
   11.8062  -27.4777  -14.1202 H   0  0  0  0  0  0  0  0  0  0  0  0
   15.4008  -27.9235  -11.6461 H   0  0  0  0  0  0  0  0  0  0  0  0
   15.2466  -26.8295  -10.2568 H   0  0  0  0  0  0  0  0  0  0  0  0
   14.9178  -28.5601  -10.0647 H   0  0  0  0  0  0  0  0  0  0  0  0
    8.4043  -24.1958   -8.6903 H   0  0  0  0  0  0  0  0  0  0  0  0
    9.9839  -24.8158   -9.1437 H   0  0  0  0  0  0  0  0  0  0  0  0
   13.7703  -26.5288  -12.9864 H   0  0  0  0  0  0  0  0  0  0  0  0
   13.5924  -25.4048  -11.6510 H   0  0  0  0  0  0  0  0  0  0  0  0
   12.7971  -27.2694  -10.1663 H   0  0  0  0  0  0  0  0  0  0  0  0
   12.9332  -28.4041  -11.5059 H   0  0  0  0  0  0  0  0  0  0  0  0
  1  2  2  0  0  0  0
  1  5  1  0  0  0  0
  2  6  1  0  0  0  0
  3  6  2  0  0  0  0
  3  7  1  0  0  0  0
  4  8  1  0  0  0  0
  4  9  2  0  0  0  0
  5  7  2  0  0  0  0
  5 12  1  0  0  0  0
  6 19  1  0  0  0  0
  7 20  1  0  0  0  0
  8 13  1  0  0  0  0
  8 15  2  0  0  0  0
  9 16  1  0  0  0  0
  9 17  1  0  0  0  0
 10 15  1  0  0  0  0
 10 16  2  0  0  0  0
 10 18  1  0  0  0  0
 11 14  1  0  0  0  0
 12 18  1  0  0  0  0
 13 14  1  0  0  0  0
  1 21  1  0  0  0  0
  2 22  1  0  0  0  0
  3 23  1  0  0  0  0
  4 24  1  0  0  0  0
 11 25  1  0  0  0  0
 11 26  1  0  0  0  0
 11 27  1  0  0  0  0
 12 28  1  0  0  0  0
 12 29  1  0  0  0  0
 13 30  1  0  0  0  0
 13 31  1  0  0  0  0
 14 32  1  0  0  0  0
 14 33  1  0  0  0  0
M  CHG  1  17  -1
M  END
> <Hybrid2>
-4.828060150146484

> <Hybrid2>
-4.828060

$$$$
C13465952
  -OEChem-02152218513D

 33 34  0     0  0  0  0  0  0999 V2000
    9.4240  -27.1425   -9.5422 C   0  0  0  0  0  0  0  0  0  0  0  0
    8.9517  -28.4549   -9.5506 C   0  0  0  0  0  0  0  0  0  0  0  0
    6.6789  -27.6373   -9.4926 C   0  0  0  0  0  0  0  0  0  0  0  0
   11.3490  -26.6724  -13.5883 C   0  0  0  0  0  0  0  0  0  0  0  0
    8.5238  -26.0775   -9.5090 C   0  0  0  0  0  0  0  0  0  0  0  0
    7.5792  -28.7023   -9.5259 C   0  0  0  0  0  0  0  0  0  0  0  0
    7.1513  -26.3249   -9.4842 C   0  0  0  0  0  0  0  0  0  0  0  0
   11.8809  -25.9965  -12.5090 C   0  0  0  0  0  0  0  0  0  0  0  0
   10.0174  -26.4237  -13.8512 C   0  0  0  0  0  0  0  0  0  0  0  0
    9.8881  -24.9833  -12.0974 C   0  0  0  0  0  0  0  0  0  0  0  0
   14.9616  -27.5836  -10.8074 C   0  0  0  0  0  0  0  0  0  0  0  0
    9.0702  -24.6862   -9.4982 C   0  0  0  0  0  0  0  0  0  0  0  0
   13.3135  -26.2006  -12.1461 C   0  0  0  0  0  0  0  0  0  0  0  0
   13.4979  -27.3551  -11.1497 C   0  0  0  0  0  0  0  0  0  0  0  0
   11.1765  -25.1414  -11.7390 N   0  0  0  0  0  0  0  0  0  0  0  0
    9.2540  -25.5822  -13.1236 N   0  0  0  0  0  0  0  0  0  0  0  0
    9.4154  -26.9915  -14.8249 O   0  5  0  0  0  0  0  0  0  0  0  0
    8.9272  -23.8724  -11.1170 S   0  0  0  0  0  0  0  0  0  0  0  0
    6.9967  -30.3217   -9.5380 Cl  0  0  0  0  0  0  0  0  0  0  0  0
    6.0075  -25.0327   -9.4413 Cl  0  0  0  0  0  0  0  0  0  0  0  0
   10.4955  -26.9606   -9.5598 H   0  0  0  0  0  0  0  0  0  0  0  0
    9.6646  -29.2750   -9.5774 H   0  0  0  0  0  0  0  0  0  0  0  0
    5.6087  -27.8320   -9.4726 H   0  0  0  0  0  0  0  0  0  0  0  0
   11.9515  -27.3520  -14.1819 H   0  0  0  0  0  0  0  0  0  0  0  0
   15.5461  -27.7978  -11.7078 H   0  0  0  0  0  0  0  0  0  0  0  0
   15.3920  -26.7038  -10.3184 H   0  0  0  0  0  0  0  0  0  0  0  0
   15.0632  -28.4344  -10.1264 H   0  0  0  0  0  0  0  0  0  0  0  0
    8.5497  -24.0701   -8.7519 H   0  0  0  0  0  0  0  0  0  0  0  0
   10.1293  -24.6901   -9.2054 H   0  0  0  0  0  0  0  0  0  0  0  0
   13.9157  -26.4031  -13.0481 H   0  0  0  0  0  0  0  0  0  0  0  0
   13.7378  -25.2791  -11.7126 H   0  0  0  0  0  0  0  0  0  0  0  0
   12.9424  -27.1437  -10.2279 H   0  0  0  0  0  0  0  0  0  0  0  0
   13.0786  -28.2784  -11.5675 H   0  0  0  0  0  0  0  0  0  0  0  0
  1  2  2  0  0  0  0
  1  5  1  0  0  0  0
  2  6  1  0  0  0  0
  3  6  2  0  0  0  0
  3  7  1  0  0  0  0
  4  8  1  0  0  0  0
  4  9  2  0  0  0  0
  5  7  2  0  0  0  0
  5 12  1  0  0  0  0
  6 19  1  0  0  0  0
  7 20  1  0  0  0  0
  8 13  1  0  0  0  0
  8 15  2  0  0  0  0
  9 16  1  0  0  0  0
  9 17  1  0  0  0  0
 10 15  1  0  0  0  0
 10 16  2  0  0  0  0
 10 18  1  0  0  0  0
 11 14  1  0  0  0  0
 12 18  1  0  0  0  0
 13 14  1  0  0  0  0
  1 21  1  0  0  0  0
  2 22  1  0  0  0  0
  3 23  1  0  0  0  0
  4 24  1  0  0  0  0
 11 25  1  0  0  0  0
 11 26  1  0  0  0  0
 11 27  1  0  0  0  0
 12 28  1  0  0  0  0
 12 29  1  0  0  0  0
 13 30  1  0  0  0  0
 13 31  1  0  0  0  0
 14 32  1  0  0  0  0
 14 33  1  0  0  0  0
M  CHG  1  17  -1
M  END
> <Hybrid2>
-4.828060150146484

> <Hybrid2>
-4.825858

$$$$
C06534198
  -OEChem-02152218513D

 28 30  0     0  0  0  0  0  0999 V2000
    7.6459  -22.1098  -10.3482 C   0  0  0  0  0  0  0  0  0  0  0  0
    7.2339  -22.5221   -9.0810 C   0  0  0  0  0  0  0  0  0  0  0  0
    7.7514  -23.0385  -11.3837 C   0  0  0  0  0  0  0  0  0  0  0  0
    6.9275  -23.8630   -8.8492 C   0  0  0  0  0  0  0  0  0  0  0  0
    7.4450  -24.3794  -11.1519 C   0  0  0  0  0  0  0  0  0  0  0  0
    9.8238  -26.3512   -9.4746 C   0  0  0  0  0  0  0  0  0  0  0  0
    9.3401  -27.7546  -11.3808 C   0  0  0  0  0  0  0  0  0  0  0  0
   11.1513  -26.2450   -9.8896 C   0  0  0  0  0  0  0  0  0  0  0  0
   10.6676  -27.6484  -11.7958 C   0  0  0  0  0  0  0  0  0  0  0  0
    7.0330  -24.7917   -9.8846 C   0  0  0  0  0  0  0  0  0  0  0  0
    8.9183  -27.1061  -10.2202 C   0  0  0  0  0  0  0  0  0  0  0  0
   11.5731  -26.8936  -11.0502 C   0  0  0  0  0  0  0  0  0  0  0  0
    6.7153  -26.1779   -9.6450 C   0  0  0  0  0  0  0  0  0  0  0  0
    6.8893  -28.3343   -9.4757 C   0  0  0  0  0  0  0  0  0  0  0  0
    5.5517  -26.6375   -9.2433 N   0  0  0  0  0  0  0  0  0  0  0  0
    5.6624  -28.0094   -9.1356 N   0  0  0  0  0  0  0  0  0  0  0  0
    7.5872  -27.2119   -9.8040 N   0  0  0  0  0  0  0  0  0  0  0  0
    7.5096  -29.9172   -9.5014 S   0  5  0  0  0  0  0  0  0  0  0  0
   13.3716  -26.7486  -11.6130 Br  0  0  0  0  0  0  0  0  0  0  0  0
    7.8839  -21.0656  -10.5289 H   0  0  0  0  0  0  0  0  0  0  0  0
    7.1520  -21.7989   -8.2748 H   0  0  0  0  0  0  0  0  0  0  0  0
    8.0712  -22.7173  -12.3708 H   0  0  0  0  0  0  0  0  0  0  0  0
    6.6051  -24.1681   -7.8565 H   0  0  0  0  0  0  0  0  0  0  0  0
    7.5333  -25.0912  -11.9692 H   0  0  0  0  0  0  0  0  0  0  0  0
    9.5087  -25.8407   -8.5678 H   0  0  0  0  0  0  0  0  0  0  0  0
    8.6445  -28.3462  -11.9711 H   0  0  0  0  0  0  0  0  0  0  0  0
   11.8445  -25.6528   -9.2977 H   0  0  0  0  0  0  0  0  0  0  0  0
   10.9802  -28.1600  -12.7027 H   0  0  0  0  0  0  0  0  0  0  0  0
  1  2  1  0  0  0  0
  1  3  2  0  0  0  0
  2  4  2  0  0  0  0
  3  5  1  0  0  0  0
  4 10  1  0  0  0  0
  5 10  2  0  0  0  0
  6  8  2  0  0  0  0
  6 11  1  0  0  0  0
  7  9  1  0  0  0  0
  7 11  2  0  0  0  0
  8 12  1  0  0  0  0
  9 12  2  0  0  0  0
 10 13  1  0  0  0  0
 11 17  1  0  0  0  0
 12 19  1  0  0  0  0
 13 15  2  0  0  0  0
 13 17  1  0  0  0  0
 14 16  2  0  0  0  0
 14 17  1  0  0  0  0
 14 18  1  0  0  0  0
 15 16  1  0  0  0  0
  1 20  1  0  0  0  0
  2 21  1  0  0  0  0
  3 22  1  0  0  0  0
  4 23  1  0  0  0  0
  5 24  1  0  0  0  0
  6 25  1  0  0  0  0
  7 26  1  0  0  0  0
  8 27  1  0  0  0  0
  9 28  1  0  0  0  0
M  CHG  1  18  -1
M  END
> <Hybrid2>
-6.397590160369873

> <Hybrid2>
-6.397590

$$$$
C06534198
  -OEChem-02152218513D

 28 30  0     0  0  0  0  0  0999 V2000
    6.5424  -30.5947   -7.9233 C   0  0  0  0  0  0  0  0  0  0  0  0
    5.8621  -29.5710   -7.2638 C   0  0  0  0  0  0  0  0  0  0  0  0
    7.0893  -30.3678   -9.1863 C   0  0  0  0  0  0  0  0  0  0  0  0
    5.7285  -28.3206   -7.8674 C   0  0  0  0  0  0  0  0  0  0  0  0
    6.9558  -29.1174   -9.7898 C   0  0  0  0  0  0  0  0  0  0  0  0
    9.0555  -26.5238   -8.6889 C   0  0  0  0  0  0  0  0  0  0  0  0
    9.3707  -26.3717  -11.0795 C   0  0  0  0  0  0  0  0  0  0  0  0
   10.4093  -26.8190   -8.5292 C   0  0  0  0  0  0  0  0  0  0  0  0
   10.7246  -26.6669  -10.9197 C   0  0  0  0  0  0  0  0  0  0  0  0
    6.2754  -28.0938   -9.1304 C   0  0  0  0  0  0  0  0  0  0  0  0
    8.5361  -26.3002   -9.9641 C   0  0  0  0  0  0  0  0  0  0  0  0
   11.2439  -26.8905   -9.6446 C   0  0  0  0  0  0  0  0  0  0  0  0
    6.1380  -26.8005   -9.7539 C   0  0  0  0  0  0  0  0  0  0  0  0
    6.6132  -24.8899  -10.6665 C   0  0  0  0  0  0  0  0  0  0  0  0
    5.0017  -26.2118  -10.0514 N   0  0  0  0  0  0  0  0  0  0  0  0
    5.3040  -24.9962  -10.6320 N   0  0  0  0  0  0  0  0  0  0  0  0
    7.1787  -26.0037  -10.1238 N   0  0  0  0  0  0  0  0  0  0  0  0
    7.4698  -23.5621  -11.2941 S   0  5  0  0  0  0  0  0  0  0  0  0
   13.0786  -27.2894   -9.4278 Br  0  0  0  0  0  0  0  0  0  0  0  0
    6.6469  -31.5681   -7.4530 H   0  0  0  0  0  0  0  0  0  0  0  0
    5.4361  -29.7480   -6.2805 H   0  0  0  0  0  0  0  0  0  0  0  0
    7.6201  -31.1646   -9.6993 H   0  0  0  0  0  0  0  0  0  0  0  0
    5.1976  -27.5322   -7.3392 H   0  0  0  0  0  0  0  0  0  0  0  0
    7.3868  -28.9568  -10.7751 H   0  0  0  0  0  0  0  0  0  0  0  0
    8.4164  -26.4715   -7.8109 H   0  0  0  0  0  0  0  0  0  0  0  0
    8.9786  -26.1996  -12.0789 H   0  0  0  0  0  0  0  0  0  0  0  0
   10.7987  -26.9904   -7.5289 H   0  0  0  0  0  0  0  0  0  0  0  0
   11.3614  -26.7188  -11.7993 H   0  0  0  0  0  0  0  0  0  0  0  0
  1  2  1  0  0  0  0
  1  3  2  0  0  0  0
  2  4  2  0  0  0  0
  3  5  1  0  0  0  0
  4 10  1  0  0  0  0
  5 10  2  0  0  0  0
  6  8  2  0  0  0  0
  6 11  1  0  0  0  0
  7  9  1  0  0  0  0
  7 11  2  0  0  0  0
  8 12  1  0  0  0  0
  9 12  2  0  0  0  0
 10 13  1  0  0  0  0
 11 17  1  0  0  0  0
 12 19  1  0  0  0  0
 13 15  2  0  0  0  0
 13 17  1  0  0  0  0
 14 16  2  0  0  0  0
 14 17  1  0  0  0  0
 14 18  1  0  0  0  0
 15 16  1  0  0  0  0
  1 20  1  0  0  0  0
  2 21  1  0  0  0  0
  3 22  1  0  0  0  0
  4 23  1  0  0  0  0
  5 24  1  0  0  0  0
  6 25  1  0  0  0  0
  7 26  1  0  0  0  0
  8 27  1  0  0  0  0
  9 28  1  0  0  0  0
M  CHG  1  18  -1
M  END
> <Hybrid2>
-6.397590160369873

> <Hybrid2>
-5.753929

$$$$
C04391021
  -OEChem-02152218513D

 39 41  0     0  0  0  0  0  0999 V2000
   13.7735  -27.3548  -11.7311 C   0  0  0  0  0  0  0  0  0  0  0  0
   13.8676  -26.1498  -12.4470 C   0  0  0  0  0  0  0  0  0  0  0  0
   12.6494  -27.6373  -10.9442 C   0  0  0  0  0  0  0  0  0  0  0  0
   12.8407  -25.2101  -12.3869 C   0  0  0  0  0  0  0  0  0  0  0  0
    3.5338  -29.0172   -8.1238 C   0  0  0  0  0  0  0  0  0  0  0  0
    5.6507  -30.1232   -8.4878 C   0  0  0  0  0  0  0  0  0  0  0  0
    2.8617  -30.1692   -8.5320 C   0  0  0  0  0  0  0  0  0  0  0  0
    4.9786  -31.2753   -8.8960 C   0  0  0  0  0  0  0  0  0  0  0  0
   11.6214  -26.7028  -10.8806 C   0  0  0  0  0  0  0  0  0  0  0  0
   11.7472  -25.5220  -11.6008 C   0  0  0  0  0  0  0  0  0  0  0  0
    4.9284  -28.9942   -8.1018 C   0  0  0  0  0  0  0  0  0  0  0  0
    3.5840  -31.2983   -8.9181 C   0  0  0  0  0  0  0  0  0  0  0  0
   10.3350  -26.7427  -10.1353 C   0  0  0  0  0  0  0  0  0  0  0  0
   10.5483  -24.7510  -11.3509 C   0  0  0  0  0  0  0  0  0  0  0  0
    9.7212  -25.5708  -10.4350 C   0  0  0  0  0  0  0  0  0  0  0  0
    8.4142  -25.1616   -9.9238 C   0  0  0  0  0  0  0  0  0  0  0  0
    8.1795  -23.6685   -9.7504 C   0  0  0  0  0  0  0  0  0  0  0  0
    6.1968  -25.2828   -9.1051 C   0  0  0  0  0  0  0  0  0  0  0  0
    5.1614  -26.3597   -8.8218 C   0  0  0  0  0  0  0  0  0  0  0  0
    7.4098  -25.9190   -9.5947 N   0  0  0  0  0  0  0  0  0  0  0  0
    9.9882  -27.7129   -9.4062 O   0  5  0  0  0  0  0  0  0  0  0  0
   10.2839  -23.6571  -11.8026 O   0  0  0  0  0  0  0  0  0  0  0  0
    5.7797  -27.5349   -7.5854 S   0  0  0  0  0  0  0  0  0  0  0  0
    2.7548  -32.7205   -9.4188 Cl  0  0  0  0  0  0  0  0  0  0  0  0
   14.5838  -28.0769  -11.7892 H   0  0  0  0  0  0  0  0  0  0  0  0
   14.7486  -25.9513  -13.0512 H   0  0  0  0  0  0  0  0  0  0  0  0
   12.5992  -28.5752  -10.3999 H   0  0  0  0  0  0  0  0  0  0  0  0
   12.9045  -24.2778  -12.9356 H   0  0  0  0  0  0  0  0  0  0  0  0
    2.9536  -28.1471   -7.8262 H   0  0  0  0  0  0  0  0  0  0  0  0
    6.7379  -30.1246   -8.4769 H   0  0  0  0  0  0  0  0  0  0  0  0
    1.7747  -30.1731   -8.5441 H   0  0  0  0  0  0  0  0  0  0  0  0
    5.5544  -32.1478   -9.1942 H   0  0  0  0  0  0  0  0  0  0  0  0
    7.7631  -23.2537  -10.6735 H   0  0  0  0  0  0  0  0  0  0  0  0
    7.4712  -23.4998   -8.9334 H   0  0  0  0  0  0  0  0  0  0  0  0
    9.1118  -23.1467   -9.5196 H   0  0  0  0  0  0  0  0  0  0  0  0
    6.4351  -24.7122   -8.2007 H   0  0  0  0  0  0  0  0  0  0  0  0
    5.8406  -24.5816   -9.8672 H   0  0  0  0  0  0  0  0  0  0  0  0
    4.2326  -25.9140   -8.4504 H   0  0  0  0  0  0  0  0  0  0  0  0
    4.9192  -26.9100   -9.7370 H   0  0  0  0  0  0  0  0  0  0  0  0
  1  2  1  0  0  0  0
  1  3  2  0  0  0  0
  2  4  2  0  0  0  0
  3  9  1  0  0  0  0
  4 10  1  0  0  0  0
  5  7  2  0  0  0  0
  5 11  1  0  0  0  0
  6  8  1  0  0  0  0
  6 11  2  0  0  0  0
  7 12  1  0  0  0  0
  8 12  2  0  0  0  0
  9 10  2  0  0  0  0
  9 13  1  0  0  0  0
 10 14  1  0  0  0  0
 11 23  1  0  0  0  0
 12 24  1  0  0  0  0
 13 15  2  0  0  0  0
 13 21  1  0  0  0  0
 14 15  1  0  0  0  0
 14 22  2  0  0  0  0
 15 16  1  0  0  0  0
 16 17  1  0  0  0  0
 16 20  2  0  0  0  0
 18 19  1  0  0  0  0
 18 20  1  0  0  0  0
 19 23  1  0  0  0  0
  1 25  1  0  0  0  0
  2 26  1  0  0  0  0
  3 27  1  0  0  0  0
  4 28  1  0  0  0  0
  5 29  1  0  0  0  0
  6 30  1  0  0  0  0
  7 31  1  0  0  0  0
  8 32  1  0  0  0  0
 17 33  1  0  0  0  0
 17 34  1  0  0  0  0
 17 35  1  0  0  0  0
 18 36  1  0  0  0  0
 18 37  1  0  0  0  0
 19 38  1  0  0  0  0
 19 39  1  0  0  0  0
M  CHG  1  21  -1
M  END
> <Hybrid2>
-6.514403820037842

> <Hybrid2>
-6.514404

$$$$
C04391021
  -OEChem-02152218513D

 39 41  0     0  0  0  0  0  0999 V2000
   14.4537  -27.9225  -10.9575 C   0  0  0  0  0  0  0  0  0  0  0  0
   14.6491  -26.8171  -11.8019 C   0  0  0  0  0  0  0  0  0  0  0  0
   13.2472  -28.0948  -10.2667 C   0  0  0  0  0  0  0  0  0  0  0  0
   13.6426  -25.8682  -11.9681 C   0  0  0  0  0  0  0  0  0  0  0  0
    3.8575  -29.0319   -8.2899 C   0  0  0  0  0  0  0  0  0  0  0  0
    5.9760  -30.1933   -8.2865 C   0  0  0  0  0  0  0  0  0  0  0  0
    3.2067  -30.2199   -8.6229 C   0  0  0  0  0  0  0  0  0  0  0  0
    5.3253  -31.3813   -8.6194 C   0  0  0  0  0  0  0  0  0  0  0  0
   12.2391  -27.1506  -10.4289 C   0  0  0  0  0  0  0  0  0  0  0  0
   12.4658  -26.0700  -11.2712 C   0  0  0  0  0  0  0  0  0  0  0  0
    5.2421  -29.0186   -8.1217 C   0  0  0  0  0  0  0  0  0  0  0  0
    3.9406  -31.3946   -8.7876 C   0  0  0  0  0  0  0  0  0  0  0  0
   10.8809  -27.0860   -9.8263 C   0  0  0  0  0  0  0  0  0  0  0  0
   11.2646  -25.2633  -11.2478 C   0  0  0  0  0  0  0  0  0  0  0  0
   10.3280  -25.9552  -10.3318 C   0  0  0  0  0  0  0  0  0  0  0  0
    8.9838  -25.4740  -10.0177 C   0  0  0  0  0  0  0  0  0  0  0  0
    8.7652  -23.9689  -10.0554 C   0  0  0  0  0  0  0  0  0  0  0  0
    6.6905  -25.4727   -9.4324 C   0  0  0  0  0  0  0  0  0  0  0  0
    5.6076  -26.4967   -9.1313 C   0  0  0  0  0  0  0  0  0  0  0  0
    7.9340  -26.1756   -9.7074 N   0  0  0  0  0  0  0  0  0  0  0  0
   10.4381  -27.9546   -9.0248 O   0  5  0  0  0  0  0  0  0  0  0  0
   11.0734  -24.2320  -11.8563 O   0  0  0  0  0  0  0  0  0  0  0  0
    6.0664  -27.5140   -7.7007 S   0  0  0  0  0  0  0  0  0  0  0  0
    3.1374  -32.8607   -9.1955 Cl  0  0  0  0  0  0  0  0  0  0  0  0
   15.2495  -28.6533  -10.8392 H   0  0  0  0  0  0  0  0  0  0  0  0
   15.5928  -26.7032  -12.3281 H   0  0  0  0  0  0  0  0  0  0  0  0
   13.1194  -28.9571   -9.6197 H   0  0  0  0  0  0  0  0  0  0  0  0
   13.7842  -25.0122  -12.6173 H   0  0  0  0  0  0  0  0  0  0  0  0
    3.2685  -28.1264   -8.1654 H   0  0  0  0  0  0  0  0  0  0  0  0
    7.0558  -30.2030   -8.1591 H   0  0  0  0  0  0  0  0  0  0  0  0
    2.1272  -30.2157   -8.7507 H   0  0  0  0  0  0  0  0  0  0  0  0
    5.9098  -32.2892   -8.7446 H   0  0  0  0  0  0  0  0  0  0  0  0
    8.4573  -23.6688  -11.0617 H   0  0  0  0  0  0  0  0  0  0  0  0
    7.9788  -23.6935   -9.3460 H   0  0  0  0  0  0  0  0  0  0  0  0
    9.6793  -23.4306   -9.7921 H   0  0  0  0  0  0  0  0  0  0  0  0
    6.8449  -24.7959   -8.5848 H   0  0  0  0  0  0  0  0  0  0  0  0
    6.4319  -24.8687  -10.3087 H   0  0  0  0  0  0  0  0  0  0  0  0
    4.6549  -25.9999   -8.9191 H   0  0  0  0  0  0  0  0  0  0  0  0
    5.4509  -27.1546   -9.9924 H   0  0  0  0  0  0  0  0  0  0  0  0
  1  2  1  0  0  0  0
  1  3  2  0  0  0  0
  2  4  2  0  0  0  0
  3  9  1  0  0  0  0
  4 10  1  0  0  0  0
  5  7  2  0  0  0  0
  5 11  1  0  0  0  0
  6  8  1  0  0  0  0
  6 11  2  0  0  0  0
  7 12  1  0  0  0  0
  8 12  2  0  0  0  0
  9 10  2  0  0  0  0
  9 13  1  0  0  0  0
 10 14  1  0  0  0  0
 11 23  1  0  0  0  0
 12 24  1  0  0  0  0
 13 15  2  0  0  0  0
 13 21  1  0  0  0  0
 14 15  1  0  0  0  0
 14 22  2  0  0  0  0
 15 16  1  0  0  0  0
 16 17  1  0  0  0  0
 16 20  2  0  0  0  0
 18 19  1  0  0  0  0
 18 20  1  0  0  0  0
 19 23  1  0  0  0  0
  1 25  1  0  0  0  0
  2 26  1  0  0  0  0
  3 27  1  0  0  0  0
  4 28  1  0  0  0  0
  5 29  1  0  0  0  0
  6 30  1  0  0  0  0
  7 31  1  0  0  0  0
  8 32  1  0  0  0  0
 17 33  1  0  0  0  0
 17 34  1  0  0  0  0
 17 35  1  0  0  0  0
 18 36  1  0  0  0  0
 18 37  1  0  0  0  0
 19 38  1  0  0  0  0
 19 39  1  0  0  0  0
M  CHG  1  21  -1
M  END
> <Hybrid2>
-6.514403820037842

> <Hybrid2>
-5.760758

$$$$
C06533992
  -OEChem-02152218513D

 38 41  0     0  0  0  0  0  0999 V2000
    8.6139  -27.3725  -14.8610 C   0  0  0  0  0  0  0  0  0  0  0  0
    9.0190  -28.4452  -14.0668 C   0  0  0  0  0  0  0  0  0  0  0  0
    8.8162  -26.0641  -14.4219 C   0  0  0  0  0  0  0  0  0  0  0  0
    9.6263  -28.2095  -12.8333 C   0  0  0  0  0  0  0  0  0  0  0  0
    7.5278  -25.5453   -9.7918 C   0  0  0  0  0  0  0  0  0  0  0  0
    8.3358  -26.6609   -9.7430 C   0  0  0  0  0  0  0  0  0  0  0  0
    7.5969  -27.8487   -9.4603 C   0  0  0  0  0  0  0  0  0  0  0  0
    9.4235  -25.8284  -13.1885 C   0  0  0  0  0  0  0  0  0  0  0  0
    9.8286  -26.9011  -12.3942 C   0  0  0  0  0  0  0  0  0  0  0  0
    6.2512  -27.5780   -9.3000 C   0  0  0  0  0  0  0  0  0  0  0  0
    9.7934  -26.5771   -9.9601 C   0  0  0  0  0  0  0  0  0  0  0  0
   11.7628  -26.5463  -10.8709 C   0  0  0  0  0  0  0  0  0  0  0  0
    8.1538  -29.2312   -9.3164 C   0  0  0  0  0  0  0  0  0  0  0  0
    5.1955  -28.6015   -9.0210 C   0  0  0  0  0  0  0  0  0  0  0  0
    7.0525  -30.3002   -9.3944 C   0  0  0  0  0  0  0  0  0  0  0  0
    5.8315  -29.9174   -8.5453 C   0  0  0  0  0  0  0  0  0  0  0  0
    9.6256  -24.4145  -12.7467 C   0  0  0  0  0  0  0  0  0  0  0  0
   10.6691  -26.3799   -9.0005 N   0  0  0  0  0  0  0  0  0  0  0  0
   11.9221  -26.3604   -9.5800 N   0  0  0  0  0  0  0  0  0  0  0  0
   10.4383  -26.6875  -11.1545 N   0  0  0  0  0  0  0  0  0  0  0  0
   13.0208  -26.6019  -12.0133 S   0  5  0  0  0  0  0  0  0  0  0  0
    5.8847  -25.9272   -9.4967 S   0  0  0  0  0  0  0  0  0  0  0  0
    8.1415  -27.5560  -15.8216 H   0  0  0  0  0  0  0  0  0  0  0  0
    8.8613  -29.4640  -14.4085 H   0  0  0  0  0  0  0  0  0  0  0  0
    8.4966  -25.2356  -15.0484 H   0  0  0  0  0  0  0  0  0  0  0  0
    9.9358  -29.0567  -12.2261 H   0  0  0  0  0  0  0  0  0  0  0  0
    7.8157  -24.5207   -9.9851 H   0  0  0  0  0  0  0  0  0  0  0  0
    8.9015  -29.4291  -10.0931 H   0  0  0  0  0  0  0  0  0  0  0  0
    8.6607  -29.3046   -8.3461 H   0  0  0  0  0  0  0  0  0  0  0  0
    4.4894  -28.2438   -8.2629 H   0  0  0  0  0  0  0  0  0  0  0  0
    4.6290  -28.7856   -9.9421 H   0  0  0  0  0  0  0  0  0  0  0  0
    6.7373  -30.4276  -10.4381 H   0  0  0  0  0  0  0  0  0  0  0  0
    7.4536  -31.2637   -9.0607 H   0  0  0  0  0  0  0  0  0  0  0  0
    6.1425  -29.8171   -7.4972 H   0  0  0  0  0  0  0  0  0  0  0  0
    5.0846  -30.7183   -8.5808 H   0  0  0  0  0  0  0  0  0  0  0  0
    8.7552  -24.0674  -12.1791 H   0  0  0  0  0  0  0  0  0  0  0  0
   10.5165  -24.3220  -12.1143 H   0  0  0  0  0  0  0  0  0  0  0  0
    9.7722  -23.7495  -13.6062 H   0  0  0  0  0  0  0  0  0  0  0  0
  1  2  1  0  0  0  0
  1  3  2  0  0  0  0
  2  4  2  0  0  0  0
  3  8  1  0  0  0  0
  4  9  1  0  0  0  0
  5  6  2  0  0  0  0
  5 22  1  0  0  0  0
  6  7  1  0  0  0  0
  6 11  1  0  0  0  0
  7 10  2  0  0  0  0
  7 13  1  0  0  0  0
  8  9  2  0  0  0  0
  8 17  1  0  0  0  0
  9 20  1  0  0  0  0
 10 14  1  0  0  0  0
 10 22  1  0  0  0  0
 11 18  2  0  0  0  0
 11 20  1  0  0  0  0
 12 19  2  0  0  0  0
 12 20  1  0  0  0  0
 12 21  1  0  0  0  0
 13 15  1  0  0  0  0
 14 16  1  0  0  0  0
 15 16  1  0  0  0  0
 18 19  1  0  0  0  0
  1 23  1  0  0  0  0
  2 24  1  0  0  0  0
  3 25  1  0  0  0  0
  4 26  1  0  0  0  0
  5 27  1  0  0  0  0
 13 28  1  0  0  0  0
 13 29  1  0  0  0  0
 14 30  1  0  0  0  0
 14 31  1  0  0  0  0
 15 32  1  0  0  0  0
 15 33  1  0  0  0  0
 16 34  1  0  0  0  0
 16 35  1  0  0  0  0
 17 36  1  0  0  0  0
 17 37  1  0  0  0  0
 17 38  1  0  0  0  0
M  CHG  1  21  -1
M  END
> <Hybrid2>
-5.956875324249268

> <Hybrid2>
-5.956875

$$$$
C06533992
  -OEChem-02152218513D

 38 41  0     0  0  0  0  0  0999 V2000
    7.4464  -30.8806   -8.3126 C   0  0  0  0  0  0  0  0  0  0  0  0
    7.3447  -30.6113   -9.6774 C   0  0  0  0  0  0  0  0  0  0  0  0
    7.5172  -29.8299   -7.3978 C   0  0  0  0  0  0  0  0  0  0  0  0
    7.3140  -29.2915  -10.1275 C   0  0  0  0  0  0  0  0  0  0  0  0
   10.4471  -27.0072   -8.8087 C   0  0  0  0  0  0  0  0  0  0  0  0
    9.8483  -26.6136   -9.9863 C   0  0  0  0  0  0  0  0  0  0  0  0
   10.7462  -26.6765  -11.0937 C   0  0  0  0  0  0  0  0  0  0  0  0
    7.4865  -28.5100   -7.8479 C   0  0  0  0  0  0  0  0  0  0  0  0
    7.3848  -28.2408   -9.2127 C   0  0  0  0  0  0  0  0  0  0  0  0
   11.9946  -27.1239  -10.7046 C   0  0  0  0  0  0  0  0  0  0  0  0
    8.4381  -26.1807  -10.0363 C   0  0  0  0  0  0  0  0  0  0  0  0
    6.2735  -26.1220   -9.8937 C   0  0  0  0  0  0  0  0  0  0  0  0
   10.4286  -26.3408  -12.5180 C   0  0  0  0  0  0  0  0  0  0  0  0
   13.1738  -27.2792  -11.6130 C   0  0  0  0  0  0  0  0  0  0  0  0
   11.7021  -26.1554  -13.3578 C   0  0  0  0  0  0  0  0  0  0  0  0
   12.7277  -27.2651  -13.0838 C   0  0  0  0  0  0  0  0  0  0  0  0
    7.5645  -27.4069   -6.8419 C   0  0  0  0  0  0  0  0  0  0  0  0
    8.0483  -24.9913  -10.4360 N   0  0  0  0  0  0  0  0  0  0  0  0
    6.6711  -24.9540  -10.3453 N   0  0  0  0  0  0  0  0  0  0  0  0
    7.3532  -26.9256   -9.6854 N   0  0  0  0  0  0  0  0  0  0  0  0
    4.6556  -26.5624   -9.6123 S   0  5  0  0  0  0  0  0  0  0  0  0
   12.0848  -27.4529   -9.0367 S   0  0  0  0  0  0  0  0  0  0  0  0
    7.4699  -31.9083   -7.9621 H   0  0  0  0  0  0  0  0  0  0  0  0
    7.2898  -31.4294  -10.3897 H   0  0  0  0  0  0  0  0  0  0  0  0
    7.5966  -30.0508   -6.3366 H   0  0  0  0  0  0  0  0  0  0  0  0
    7.2349  -29.0987  -11.1947 H   0  0  0  0  0  0  0  0  0  0  0  0
   10.0086  -27.0564   -7.8211 H   0  0  0  0  0  0  0  0  0  0  0  0
    9.8110  -27.1250  -12.9710 H   0  0  0  0  0  0  0  0  0  0  0  0
    9.8450  -25.4117  -12.5364 H   0  0  0  0  0  0  0  0  0  0  0  0
   13.9072  -26.4819  -11.4477 H   0  0  0  0  0  0  0  0  0  0  0  0
   13.6662  -28.2345  -11.3933 H   0  0  0  0  0  0  0  0  0  0  0  0
   11.4431  -26.1625  -14.4245 H   0  0  0  0  0  0  0  0  0  0  0  0
   12.1434  -25.1759  -13.1417 H   0  0  0  0  0  0  0  0  0  0  0  0
   13.6013  -27.1120  -13.7310 H   0  0  0  0  0  0  0  0  0  0  0  0
   12.3034  -28.2405  -13.3466 H   0  0  0  0  0  0  0  0  0  0  0  0
    8.6096  -27.1300   -6.6643 H   0  0  0  0  0  0  0  0  0  0  0  0
    7.0201  -26.5195   -7.1860 H   0  0  0  0  0  0  0  0  0  0  0  0
    7.1147  -27.7092   -5.8887 H   0  0  0  0  0  0  0  0  0  0  0  0
  1  2  1  0  0  0  0
  1  3  2  0  0  0  0
  2  4  2  0  0  0  0
  3  8  1  0  0  0  0
  4  9  1  0  0  0  0
  5  6  2  0  0  0  0
  5 22  1  0  0  0  0
  6  7  1  0  0  0  0
  6 11  1  0  0  0  0
  7 10  2  0  0  0  0
  7 13  1  0  0  0  0
  8  9  2  0  0  0  0
  8 17  1  0  0  0  0
  9 20  1  0  0  0  0
 10 14  1  0  0  0  0
 10 22  1  0  0  0  0
 11 18  2  0  0  0  0
 11 20  1  0  0  0  0
 12 19  2  0  0  0  0
 12 20  1  0  0  0  0
 12 21  1  0  0  0  0
 13 15  1  0  0  0  0
 14 16  1  0  0  0  0
 15 16  1  0  0  0  0
 18 19  1  0  0  0  0
  1 23  1  0  0  0  0
  2 24  1  0  0  0  0
  3 25  1  0  0  0  0
  4 26  1  0  0  0  0
  5 27  1  0  0  0  0
 13 28  1  0  0  0  0
 13 29  1  0  0  0  0
 14 30  1  0  0  0  0
 14 31  1  0  0  0  0
 15 32  1  0  0  0  0
 15 33  1  0  0  0  0
 16 34  1  0  0  0  0
 16 35  1  0  0  0  0
 17 36  1  0  0  0  0
 17 37  1  0  0  0  0
 17 38  1  0  0  0  0
M  CHG  1  21  -1
M  END
> <Hybrid2>
-5.956875324249268

> <Hybrid2>
-4.874586

$$$$
C20589692
  -OEChem-02152218513D

 31 33  0     0  0  0  0  0  0999 V2000
    7.4373  -22.3818  -10.1917 C   0  0  0  0  0  0  0  0  0  0  0  0
    6.5796  -22.7695   -9.1623 C   0  0  0  0  0  0  0  0  0  0  0  0
    8.0907  -23.3482  -10.9564 C   0  0  0  0  0  0  0  0  0  0  0  0
    6.3754  -24.1237   -8.8975 C   0  0  0  0  0  0  0  0  0  0  0  0
    7.8865  -24.7024  -10.6916 C   0  0  0  0  0  0  0  0  0  0  0  0
    9.3841  -27.9327  -11.2977 C   0  0  0  0  0  0  0  0  0  0  0  0
   10.6628  -27.7606  -11.8277 C   0  0  0  0  0  0  0  0  0  0  0  0
   11.2275  -26.2972   -9.9902 C   0  0  0  0  0  0  0  0  0  0  0  0
    7.0289  -25.0902   -9.6621 C   0  0  0  0  0  0  0  0  0  0  0  0
    9.9488  -26.4693   -9.4602 C   0  0  0  0  0  0  0  0  0  0  0  0
    9.0271  -27.2871  -10.1139 C   0  0  0  0  0  0  0  0  0  0  0  0
   11.5845  -26.9428  -11.1740 C   0  0  0  0  0  0  0  0  0  0  0  0
    6.8169  -26.4904   -9.3888 C   0  0  0  0  0  0  0  0  0  0  0  0
    7.1378  -28.6295   -9.2148 C   0  0  0  0  0  0  0  0  0  0  0  0
    9.5977  -25.7621   -8.1907 C   0  0  0  0  0  0  0  0  0  0  0  0
    5.7163  -27.0162   -8.9003 N   0  0  0  0  0  0  0  0  0  0  0  0
    5.9205  -28.3771   -8.7896 N   0  0  0  0  0  0  0  0  0  0  0  0
    7.7386  -27.4701   -9.6018 N   0  0  0  0  0  0  0  0  0  0  0  0
    7.8531  -30.1709   -9.2722 S   0  5  0  0  0  0  0  0  0  0  0  0
   13.3170  -26.7095  -11.8921 Br  0  0  0  0  0  0  0  0  0  0  0  0
    7.5958  -21.3274  -10.3983 H   0  0  0  0  0  0  0  0  0  0  0  0
    6.0712  -22.0168   -8.5669 H   0  0  0  0  0  0  0  0  0  0  0  0
    8.7577  -23.0463  -11.7587 H   0  0  0  0  0  0  0  0  0  0  0  0
    5.7018  -24.4099   -8.0933 H   0  0  0  0  0  0  0  0  0  0  0  0
    8.4040  -25.4436  -11.2960 H   0  0  0  0  0  0  0  0  0  0  0  0
    8.6755  -28.5720  -11.8190 H   0  0  0  0  0  0  0  0  0  0  0  0
   10.9250  -28.2702  -12.7513 H   0  0  0  0  0  0  0  0  0  0  0  0
   11.9410  -25.6575   -9.4754 H   0  0  0  0  0  0  0  0  0  0  0  0
    9.1754  -24.7755   -8.4114 H   0  0  0  0  0  0  0  0  0  0  0  0
    8.8657  -26.3349   -7.6090 H   0  0  0  0  0  0  0  0  0  0  0  0
   10.4811  -25.6314   -7.5543 H   0  0  0  0  0  0  0  0  0  0  0  0
  1  2  1  0  0  0  0
  1  3  2  0  0  0  0
  2  4  2  0  0  0  0
  3  5  1  0  0  0  0
  4  9  1  0  0  0  0
  5  9  2  0  0  0  0
  6  7  2  0  0  0  0
  6 11  1  0  0  0  0
  7 12  1  0  0  0  0
  8 10  1  0  0  0  0
  8 12  2  0  0  0  0
  9 13  1  0  0  0  0
 10 11  2  0  0  0  0
 10 15  1  0  0  0  0
 11 18  1  0  0  0  0
 12 20  1  0  0  0  0
 13 16  2  0  0  0  0
 13 18  1  0  0  0  0
 14 17  2  0  0  0  0
 14 18  1  0  0  0  0
 14 19  1  0  0  0  0
 16 17  1  0  0  0  0
  1 21  1  0  0  0  0
  2 22  1  0  0  0  0
  3 23  1  0  0  0  0
  4 24  1  0  0  0  0
  5 25  1  0  0  0  0
  6 26  1  0  0  0  0
  7 27  1  0  0  0  0
  8 28  1  0  0  0  0
 15 29  1  0  0  0  0
 15 30  1  0  0  0  0
 15 31  1  0  0  0  0
M  CHG  1  19  -1
M  END
> <Hybrid2>
-5.659953594207764

> <Hybrid2>
-5.659954

$$$$
C20589692
  -OEChem-02152218513D

 31 33  0     0  0  0  0  0  0999 V2000
    6.9434  -30.2994   -9.2161 C   0  0  0  0  0  0  0  0  0  0  0  0
    5.7643  -29.5587   -9.2963 C   0  0  0  0  0  0  0  0  0  0  0  0
    8.1724  -29.6463   -9.1223 C   0  0  0  0  0  0  0  0  0  0  0  0
    5.8140  -28.1648   -9.2827 C   0  0  0  0  0  0  0  0  0  0  0  0
    8.2221  -28.2524   -9.1087 C   0  0  0  0  0  0  0  0  0  0  0  0
   10.5280  -25.5257   -9.6501 C   0  0  0  0  0  0  0  0  0  0  0  0
   11.7065  -26.0175  -10.2111 C   0  0  0  0  0  0  0  0  0  0  0  0
   10.4256  -27.1103  -11.9438 C   0  0  0  0  0  0  0  0  0  0  0  0
    7.0429  -27.5116   -9.1889 C   0  0  0  0  0  0  0  0  0  0  0  0
    9.2471  -26.6184  -11.3827 C   0  0  0  0  0  0  0  0  0  0  0  0
    9.2983  -25.8262  -10.2358 C   0  0  0  0  0  0  0  0  0  0  0  0
   11.6553  -26.8098  -11.3580 C   0  0  0  0  0  0  0  0  0  0  0  0
    7.0941  -26.0703   -9.1739 C   0  0  0  0  0  0  0  0  0  0  0  0
    7.7740  -24.0277   -9.4472 C   0  0  0  0  0  0  0  0  0  0  0  0
    7.9457  -26.9600  -12.0344 C   0  0  0  0  0  0  0  0  0  0  0  0
    6.1606  -25.2768   -8.6995 N   0  0  0  0  0  0  0  0  0  0  0  0
    6.5931  -23.9772   -8.8733 N   0  0  0  0  0  0  0  0  0  0  0  0
    8.1284  -25.3262   -9.6548 N   0  0  0  0  0  0  0  0  0  0  0  0
    8.7155  -22.6754   -9.8664 S   0  5  0  0  0  0  0  0  0  0  0  0
   13.2521  -27.4763  -12.1183 Br  0  0  0  0  0  0  0  0  0  0  0  0
    6.9046  -31.3848   -9.2261 H   0  0  0  0  0  0  0  0  0  0  0  0
    4.8075  -30.0675   -9.3696 H   0  0  0  0  0  0  0  0  0  0  0  0
    9.0905  -30.2231   -9.0587 H   0  0  0  0  0  0  0  0  0  0  0  0
    4.8858  -27.6016   -9.3432 H   0  0  0  0  0  0  0  0  0  0  0  0
    9.1880  -27.7581   -9.0362 H   0  0  0  0  0  0  0  0  0  0  0  0
   10.5831  -24.9105   -8.7550 H   0  0  0  0  0  0  0  0  0  0  0  0
   12.6566  -25.7747   -9.7421 H   0  0  0  0  0  0  0  0  0  0  0  0
   10.3782  -27.7280  -12.8379 H   0  0  0  0  0  0  0  0  0  0  0  0
    7.5439  -27.8884  -11.6134 H   0  0  0  0  0  0  0  0  0  0  0  0
    7.2092  -26.1610  -11.8884 H   0  0  0  0  0  0  0  0  0  0  0  0
    8.0679  -27.0894  -13.1164 H   0  0  0  0  0  0  0  0  0  0  0  0
  1  2  1  0  0  0  0
  1  3  2  0  0  0  0
  2  4  2  0  0  0  0
  3  5  1  0  0  0  0
  4  9  1  0  0  0  0
  5  9  2  0  0  0  0
  6  7  2  0  0  0  0
  6 11  1  0  0  0  0
  7 12  1  0  0  0  0
  8 10  1  0  0  0  0
  8 12  2  0  0  0  0
  9 13  1  0  0  0  0
 10 11  2  0  0  0  0
 10 15  1  0  0  0  0
 11 18  1  0  0  0  0
 12 20  1  0  0  0  0
 13 16  2  0  0  0  0
 13 18  1  0  0  0  0
 14 17  2  0  0  0  0
 14 18  1  0  0  0  0
 14 19  1  0  0  0  0
 16 17  1  0  0  0  0
  1 21  1  0  0  0  0
  2 22  1  0  0  0  0
  3 23  1  0  0  0  0
  4 24  1  0  0  0  0
  5 25  1  0  0  0  0
  6 26  1  0  0  0  0
  7 27  1  0  0  0  0
  8 28  1  0  0  0  0
 15 29  1  0  0  0  0
 15 30  1  0  0  0  0
 15 31  1  0  0  0  0
M  CHG  1  19  -1
M  END
> <Hybrid2>
-5.659953594207764

> <Hybrid2>
-5.274823

$$$$
C20591184
  -OEChem-02152218513D

 31 33  0     0  0  0  0  0  0999 V2000
    5.9859  -28.4488   -9.5370 C   0  0  0  0  0  0  0  0  0  0  0  0
   10.6067  -27.1877  -12.2820 C   0  0  0  0  0  0  0  0  0  0  0  0
   11.2878  -26.8854  -13.4611 C   0  0  0  0  0  0  0  0  0  0  0  0
    6.8835  -27.6065  -10.2548 C   0  0  0  0  0  0  0  0  0  0  0  0
   13.3371  -26.6199  -12.2093 C   0  0  0  0  0  0  0  0  0  0  0  0
    5.6260  -27.9062   -8.3231 C   0  0  0  0  0  0  0  0  0  0  0  0
   11.2907  -27.2059  -11.0665 C   0  0  0  0  0  0  0  0  0  0  0  0
   12.6530  -26.6016  -13.4248 C   0  0  0  0  0  0  0  0  0  0  0  0
   12.6559  -26.9221  -11.0302 C   0  0  0  0  0  0  0  0  0  0  0  0
    7.1751  -26.4520   -9.5621 C   0  0  0  0  0  0  0  0  0  0  0  0
    8.0232  -25.3978   -9.9731 C   0  0  0  0  0  0  0  0  0  0  0  0
    9.7714  -24.1507  -10.2856 C   0  0  0  0  0  0  0  0  0  0  0  0
   10.5241  -27.5317   -9.8253 C   0  0  0  0  0  0  0  0  0  0  0  0
   10.1508  -26.2999   -8.9836 C   0  0  0  0  0  0  0  0  0  0  0  0
    7.6393  -24.3446  -10.6585 N   0  0  0  0  0  0  0  0  0  0  0  0
    8.7516  -23.5512  -10.8573 N   0  0  0  0  0  0  0  0  0  0  0  0
    9.3583  -25.3170   -9.7165 N   0  0  0  0  0  0  0  0  0  0  0  0
   11.3675  -23.5761  -10.2488 S   0  5  0  0  0  0  0  0  0  0  0  0
    6.3688  -26.3871   -8.0528 S   0  0  0  0  0  0  0  0  0  0  0  0
   13.4934  -26.2305  -14.8800 Cl  0  0  0  0  0  0  0  0  0  0  0  0
   13.5353  -26.9337   -9.5448 Cl  0  0  0  0  0  0  0  0  0  0  0  0
    5.6221  -29.4038   -9.8932 H   0  0  0  0  0  0  0  0  0  0  0  0
    9.5425  -27.4055  -12.3211 H   0  0  0  0  0  0  0  0  0  0  0  0
   10.7422  -26.8756  -14.4012 H   0  0  0  0  0  0  0  0  0  0  0  0
    7.2885  -27.8435  -11.2309 H   0  0  0  0  0  0  0  0  0  0  0  0
   14.4018  -26.3975  -12.1826 H   0  0  0  0  0  0  0  0  0  0  0  0
    4.9627  -28.3292   -7.5821 H   0  0  0  0  0  0  0  0  0  0  0  0
   11.0847  -28.2493   -9.2044 H   0  0  0  0  0  0  0  0  0  0  0  0
    9.5962  -28.0572  -10.1037 H   0  0  0  0  0  0  0  0  0  0  0  0
    9.5910  -26.5881   -8.0858 H   0  0  0  0  0  0  0  0  0  0  0  0
   11.0561  -25.7835   -8.6412 H   0  0  0  0  0  0  0  0  0  0  0  0
  1  4  1  0  0  0  0
  1  6  2  0  0  0  0
  2  3  2  0  0  0  0
  2  7  1  0  0  0  0
  3  8  1  0  0  0  0
  4 10  2  0  0  0  0
  5  8  2  0  0  0  0
  5  9  1  0  0  0  0
  6 19  1  0  0  0  0
  7  9  2  0  0  0  0
  7 13  1  0  0  0  0
  8 20  1  0  0  0  0
  9 21  1  0  0  0  0
 10 11  1  0  0  0  0
 10 19  1  0  0  0  0
 11 15  2  0  0  0  0
 11 17  1  0  0  0  0
 12 16  2  0  0  0  0
 12 17  1  0  0  0  0
 12 18  1  0  0  0  0
 13 14  1  0  0  0  0
 14 17  1  0  0  0  0
 15 16  1  0  0  0  0
  1 22  1  0  0  0  0
  2 23  1  0  0  0  0
  3 24  1  0  0  0  0
  4 25  1  0  0  0  0
  5 26  1  0  0  0  0
  6 27  1  0  0  0  0
 13 28  1  0  0  0  0
 13 29  1  0  0  0  0
 14 30  1  0  0  0  0
 14 31  1  0  0  0  0
M  CHG  1  18  -1
M  END
> <Hybrid2>
-5.189155101776123

> <Hybrid2>
-5.189155

$$$$
C20591184
  -OEChem-02152218513D

 31 33  0     0  0  0  0  0  0999 V2000
    7.4274  -23.2191   -9.7930 C   0  0  0  0  0  0  0  0  0  0  0  0
   11.3585  -28.9395   -9.8941 C   0  0  0  0  0  0  0  0  0  0  0  0
   12.7503  -28.8482   -9.9027 C   0  0  0  0  0  0  0  0  0  0  0  0
    7.2438  -24.4737   -9.1432 C   0  0  0  0  0  0  0  0  0  0  0  0
   12.6154  -26.9303  -11.3657 C   0  0  0  0  0  0  0  0  0  0  0  0
    6.8260  -23.1851  -11.0319 C   0  0  0  0  0  0  0  0  0  0  0  0
   10.5951  -28.0263  -10.6214 C   0  0  0  0  0  0  0  0  0  0  0  0
   13.3788  -27.8436  -10.6385 C   0  0  0  0  0  0  0  0  0  0  0  0
   11.2236  -27.0217  -11.3572 C   0  0  0  0  0  0  0  0  0  0  0  0
    6.5087  -25.3509   -9.9101 C   0  0  0  0  0  0  0  0  0  0  0  0
    6.1369  -26.6743   -9.5785 C   0  0  0  0  0  0  0  0  0  0  0  0
    6.2243  -28.7768   -9.0487 C   0  0  0  0  0  0  0  0  0  0  0  0
    9.1067  -28.1599  -10.5884 C   0  0  0  0  0  0  0  0  0  0  0  0
    8.4599  -27.5974   -9.3115 C   0  0  0  0  0  0  0  0  0  0  0  0
    4.9007  -27.1095   -9.4853 N   0  0  0  0  0  0  0  0  0  0  0  0
    4.9563  -28.4472   -9.1482 N   0  0  0  0  0  0  0  0  0  0  0  0
    7.0030  -27.6909   -9.3116 N   0  0  0  0  0  0  0  0  0  0  0  0
    6.8220  -30.3154   -8.6555 S   0  5  0  0  0  0  0  0  0  0  0  0
    6.0437  -24.6615  -11.4070 S   0  0  0  0  0  0  0  0  0  0  0  0
   15.0959  -27.7301  -10.6474 Cl  0  0  0  0  0  0  0  0  0  0  0  0
   10.3121  -25.8748  -12.2703 Cl  0  0  0  0  0  0  0  0  0  0  0  0
    7.9722  -22.3836   -9.3730 H   0  0  0  0  0  0  0  0  0  0  0  0
   10.8787  -29.7273   -9.3189 H   0  0  0  0  0  0  0  0  0  0  0  0
   13.3324  -29.5662   -9.3307 H   0  0  0  0  0  0  0  0  0  0  0  0
    7.6339  -24.7113   -8.1612 H   0  0  0  0  0  0  0  0  0  0  0  0
   13.1072  -26.1478  -11.9398 H   0  0  0  0  0  0  0  0  0  0  0  0
    6.8088  -22.3641  -11.7345 H   0  0  0  0  0  0  0  0  0  0  0  0
    8.8122  -29.2138  -10.7201 H   0  0  0  0  0  0  0  0  0  0  0  0
    8.6792  -27.6323  -11.4565 H   0  0  0  0  0  0  0  0  0  0  0  0
    8.8343  -28.1112   -8.4180 H   0  0  0  0  0  0  0  0  0  0  0  0
    8.7081  -26.5353   -9.1945 H   0  0  0  0  0  0  0  0  0  0  0  0
  1  4  1  0  0  0  0
  1  6  2  0  0  0  0
  2  3  2  0  0  0  0
  2  7  1  0  0  0  0
  3  8  1  0  0  0  0
  4 10  2  0  0  0  0
  5  8  2  0  0  0  0
  5  9  1  0  0  0  0
  6 19  1  0  0  0  0
  7  9  2  0  0  0  0
  7 13  1  0  0  0  0
  8 20  1  0  0  0  0
  9 21  1  0  0  0  0
 10 11  1  0  0  0  0
 10 19  1  0  0  0  0
 11 15  2  0  0  0  0
 11 17  1  0  0  0  0
 12 16  2  0  0  0  0
 12 17  1  0  0  0  0
 12 18  1  0  0  0  0
 13 14  1  0  0  0  0
 14 17  1  0  0  0  0
 15 16  1  0  0  0  0
  1 22  1  0  0  0  0
  2 23  1  0  0  0  0
  3 24  1  0  0  0  0
  4 25  1  0  0  0  0
  5 26  1  0  0  0  0
  6 27  1  0  0  0  0
 13 28  1  0  0  0  0
 13 29  1  0  0  0  0
 14 30  1  0  0  0  0
 14 31  1  0  0  0  0
M  CHG  1  18  -1
M  END
> <Hybrid2>
-5.189155101776123

> <Hybrid2>
-4.822051

$$$$
C23375027
  -OEChem-02152218513D

 54 59  0     1  0  0  0  0  0999 V2000
    9.6643  -25.0536  -13.5531 C   0  0  0  0  0  0  0  0  0  0  0  0
   11.0326  -26.8911  -12.8376 C   0  0  0  0  0  0  0  0  0  0  0  0
   10.6813  -25.9635  -13.8092 C   0  0  0  0  0  0  0  0  0  0  0  0
    8.9643  -25.0793  -12.3331 C   0  0  0  0  0  0  0  0  0  0  0  0
   10.3841  -26.9079  -11.5894 C   0  0  0  0  0  0  0  0  0  0  0  0
    9.3211  -26.0111  -11.3289 C   0  0  0  0  0  0  0  0  0  0  0  0
    5.8858  -30.4231   -9.5138 C   0  0  0  0  0  0  0  0  0  0  0  0
    7.1557  -30.6994   -9.1874 C   0  0  0  0  0  0  0  0  0  0  0  0
    5.6419  -24.8063  -12.6436 C   0  0  0  0  0  0  0  0  0  0  0  0
   12.4713  -27.0771   -9.0078 C   0  0  0  0  0  0  0  0  0  0  0  0
    6.7356  -24.2255  -13.1471 C   0  0  0  0  0  0  0  0  0  0  0  0
   12.3138  -27.6989  -10.1812 C   0  0  0  0  0  0  0  0  0  0  0  0
   11.3869  -25.9409  -15.1006 C   0  0  0  0  0  0  0  0  0  0  0  0
    5.3823  -29.0294   -9.7404 C   0  0  0  0  0  0  0  0  0  0  0  0
    8.2139  -29.6454   -9.0458 C   0  0  0  0  0  0  0  0  0  0  0  0
    5.8208  -25.1550  -11.2049 C   0  0  0  0  0  0  0  0  0  0  0  0
   11.1571  -26.7604   -8.3784 C   0  0  0  0  0  0  0  0  0  0  0  0
    6.3569  -27.9486   -9.2622 C   0  0  0  0  0  0  0  0  0  0  0  0
    7.8799  -24.8782   -9.6908 C   0  0  0  0  0  0  0  0  0  0  0  0
    7.8341  -24.0903  -12.1263 C   0  0  1  0  0  0  0  0  0  0  0  0
   10.8618  -27.8893  -10.5370 C   0  0  1  0  0  0  0  0  0  0  0  0
    7.8014  -28.2908   -9.6491 C   0  0  1  0  0  0  0  0  0  0  0  0
    7.0424  -24.3035  -10.8220 C   0  0  1  0  0  0  0  0  0  0  0  0
   10.2064  -27.6898   -9.1555 C   0  0  2  0  0  0  0  0  0  0  0  0
    8.7641  -27.1887   -9.2132 C   0  0  1  0  0  0  0  0  0  0  0  0
    8.6378  -26.0462  -10.1181 N   0  0  3  0  0  0  0  0  0  0  0  0
   12.3261  -26.7973  -15.3088 O   0  5  0  0  0  0  0  0  0  0  0  0
   11.0424  -25.0653  -15.9800 O   0  0  0  0  0  0  0  0  0  0  0  0
    9.3984  -24.3216  -14.3135 H   0  0  0  0  0  0  0  0  0  0  0  0
   11.8331  -27.6000  -13.0405 H   0  0  0  0  0  0  0  0  0  0  0  0
    5.1754  -31.2378   -9.6195 H   0  0  0  0  0  0  0  0  0  0  0  0
    7.4475  -31.7314   -9.0159 H   0  0  0  0  0  0  0  0  0  0  0  0
    4.7484  -25.0213  -13.2113 H   0  0  0  0  0  0  0  0  0  0  0  0
   13.4271  -26.8154   -8.5784 H   0  0  0  0  0  0  0  0  0  0  0  0
    6.8257  -23.9027  -14.1751 H   0  0  0  0  0  0  0  0  0  0  0  0
   13.1344  -28.0105  -10.8123 H   0  0  0  0  0  0  0  0  0  0  0  0
    5.1883  -28.9027  -10.8123 H   0  0  0  0  0  0  0  0  0  0  0  0
    4.4245  -28.8995   -9.2237 H   0  0  0  0  0  0  0  0  0  0  0  0
    8.4473  -29.5370   -7.9795 H   0  0  0  0  0  0  0  0  0  0  0  0
    9.1302  -29.9912   -9.5392 H   0  0  0  0  0  0  0  0  0  0  0  0
    4.9471  -24.8717  -10.6099 H   0  0  0  0  0  0  0  0  0  0  0  0
    5.9885  -26.2304  -11.0978 H   0  0  0  0  0  0  0  0  0  0  0  0
   11.1522  -27.0050   -7.3116 H   0  0  0  0  0  0  0  0  0  0  0  0
   10.9222  -25.6980   -8.4993 H   0  0  0  0  0  0  0  0  0  0  0  0
    6.0630  -26.9822   -9.6888 H   0  0  0  0  0  0  0  0  0  0  0  0
    6.2809  -27.8484   -8.1713 H   0  0  0  0  0  0  0  0  0  0  0  0
    8.5856  -24.1178   -9.3326 H   0  0  0  0  0  0  0  0  0  0  0  0
    7.2262  -25.1234   -8.8450 H   0  0  0  0  0  0  0  0  0  0  0  0
    8.2489  -23.0748  -12.1349 H   0  0  0  0  0  0  0  0  0  0  0  0
   10.6753  -28.9115  -10.8878 H   0  0  0  0  0  0  0  0  0  0  0  0
    7.8528  -28.3695  -10.7443 H   0  0  0  0  0  0  0  0  0  0  0  0
    6.6618  -23.3248  -10.4902 H   0  0  0  0  0  0  0  0  0  0  0  0
   10.2164  -28.6594   -8.6320 H   0  0  0  0  0  0  0  0  0  0  0  0
    8.4722  -26.8895   -8.1980 H   0  0  0  0  0  0  0  0  0  0  0  0
  1  3  1  0  0  0  0
  1  4  2  0  0  0  0
  2  3  2  0  0  0  0
  2  5  1  0  0  0  0
  3 13  1  0  0  0  0
  4  6  1  0  0  0  0
  4 20  1  0  0  0  0
  5  6  2  0  0  0  0
  5 21  1  0  0  0  0
  6 26  1  0  0  0  0
  7  8  2  0  0  0  0
  7 14  1  0  0  0  0
  8 15  1  0  0  0  0
  9 11  2  0  0  0  0
  9 16  1  0  0  0  0
 10 12  2  0  0  0  0
 10 17  1  0  0  0  0
 11 20  1  0  0  0  0
 12 21  1  0  0  0  0
 13 27  1  0  0  0  0
 13 28  2  0  0  0  0
 14 18  1  0  0  0  0
 15 22  1  0  0  0  0
 16 23  1  0  0  0  0
 17 24  1  0  0  0  0
 18 22  1  0  0  0  0
 19 23  1  0  0  0  0
 19 26  1  0  0  0  0
 20 23  1  0  0  0  0
 21 24  1  0  0  0  0
 22 25  1  0  0  0  0
 24 25  1  0  0  0  0
 25 26  1  0  0  0  0
  1 29  1  0  0  0  0
  2 30  1  0  0  0  0
  7 31  1  0  0  0  0
  8 32  1  0  0  0  0
  9 33  1  0  0  0  0
 10 34  1  0  0  0  0
 11 35  1  0  0  0  0
 12 36  1  0  0  0  0
 14 37  1  0  0  0  0
 14 38  1  0  0  0  0
 15 39  1  0  0  0  0
 15 40  1  0  0  0  0
 16 41  1  0  0  0  0
 16 42  1  0  0  0  0
 17 43  1  0  0  0  0
 17 44  1  0  0  0  0
 18 45  1  0  0  0  0
 18 46  1  0  0  0  0
 19 47  1  0  0  0  0
 19 48  1  0  0  0  0
 20 49  1  0  0  0  0
 21 50  1  0  0  0  0
 22 51  1  0  0  0  0
 23 52  1  0  0  0  0
 24 53  1  0  0  0  0
 25 54  1  0  0  0  0
M  CHG  1  27  -1
M  END
> <Hybrid2>
-3.905031204223633

> <Hybrid2>
-3.905031

$$$$
C23375027
  -OEChem-02152218513D

 54 59  0     1  0  0  0  0  0999 V2000
    9.8995  -23.5363  -11.4765 C   0  0  0  0  0  0  0  0  0  0  0  0
    8.9874  -24.2461   -9.3730 C   0  0  0  0  0  0  0  0  0  0  0  0
    9.3576  -23.2241  -10.2368 C   0  0  0  0  0  0  0  0  0  0  0  0
   10.1066  -24.8749  -11.8563 C   0  0  0  0  0  0  0  0  0  0  0  0
    9.1364  -25.5942   -9.7459 C   0  0  0  0  0  0  0  0  0  0  0  0
    9.7215  -25.9266  -10.9906 C   0  0  0  0  0  0  0  0  0  0  0  0
   13.9760  -28.2196   -9.0631 C   0  0  0  0  0  0  0  0  0  0  0  0
   13.5985  -29.1164   -9.9844 C   0  0  0  0  0  0  0  0  0  0  0  0
   13.0849  -25.4624  -13.2684 C   0  0  0  0  0  0  0  0  0  0  0  0
    6.4379  -27.4438   -9.1565 C   0  0  0  0  0  0  0  0  0  0  0  0
   12.1129  -24.5481  -13.3485 C   0  0  0  0  0  0  0  0  0  0  0  0
    7.1711  -26.5435   -8.4932 C   0  0  0  0  0  0  0  0  0  0  0  0
    9.1711  -21.8183   -9.8433 C   0  0  0  0  0  0  0  0  0  0  0  0
   13.0430  -27.2020   -8.4789 C   0  0  0  0  0  0  0  0  0  0  0  0
   12.1948  -29.2166  -10.5042 C   0  0  0  0  0  0  0  0  0  0  0  0
   12.5322  -26.8315  -13.0598 C   0  0  0  0  0  0  0  0  0  0  0  0
    7.2927  -28.3267  -10.0012 C   0  0  0  0  0  0  0  0  0  0  0  0
   11.7250  -27.0767   -9.2493 C   0  0  0  0  0  0  0  0  0  0  0  0
   10.0946  -27.5915  -12.7606 C   0  0  0  0  0  0  0  0  0  0  0  0
   10.7424  -25.1546  -13.2038 C   0  0  1  0  0  0  0  0  0  0  0  0
    8.6420  -26.6684   -8.7967 C   0  0  1  0  0  0  0  0  0  0  0  0
   11.1747  -28.4546   -9.6394 C   0  0  1  0  0  0  0  0  0  0  0  0
   11.0582  -26.6416  -13.4537 C   0  0  1  0  0  0  0  0  0  0  0  0
    8.6859  -28.0915   -9.3887 C   0  0  2  0  0  0  0  0  0  0  0  0
    9.8372  -28.3283  -10.3650 C   0  0  1  0  0  0  0  0  0  0  0  0
    9.9199  -27.2541  -11.3546 N   0  0  3  0  0  0  0  0  0  0  0  0
    8.6658  -21.5600   -8.6871 O   0  5  0  0  0  0  0  0  0  0  0  0
    9.5190  -20.8922  -10.6680 O   0  0  0  0  0  0  0  0  0  0  0  0
   10.1794  -22.7324  -12.1549 H   0  0  0  0  0  0  0  0  0  0  0  0
    8.5591  -23.9975   -8.4037 H   0  0  0  0  0  0  0  0  0  0  0  0
   15.0052  -28.2160   -8.7160 H   0  0  0  0  0  0  0  0  0  0  0  0
   14.3328  -29.8112  -10.3813 H   0  0  0  0  0  0  0  0  0  0  0  0
   14.1401  -25.2379  -13.3216 H   0  0  0  0  0  0  0  0  0  0  0  0
    5.3612  -27.5110   -9.1069 H   0  0  0  0  0  0  0  0  0  0  0  0
   12.2920  -23.4908  -13.4871 H   0  0  0  0  0  0  0  0  0  0  0  0
    6.7540  -25.7976   -7.8310 H   0  0  0  0  0  0  0  0  0  0  0  0
   12.8367  -27.4803   -7.4384 H   0  0  0  0  0  0  0  0  0  0  0  0
   13.5375  -26.2242   -8.4573 H   0  0  0  0  0  0  0  0  0  0  0  0
   12.1844  -28.8393  -11.5342 H   0  0  0  0  0  0  0  0  0  0  0  0
   11.9054  -30.2734  -10.5488 H   0  0  0  0  0  0  0  0  0  0  0  0
   13.0175  -27.5654  -13.7105 H   0  0  0  0  0  0  0  0  0  0  0  0
   12.6690  -27.1363  -12.0185 H   0  0  0  0  0  0  0  0  0  0  0  0
    7.0010  -29.3774   -9.9090 H   0  0  0  0  0  0  0  0  0  0  0  0
    7.2243  -28.0310  -11.0531 H   0  0  0  0  0  0  0  0  0  0  0  0
   10.9978  -26.5317   -8.6358 H   0  0  0  0  0  0  0  0  0  0  0  0
   11.8889  -26.4754  -10.1535 H   0  0  0  0  0  0  0  0  0  0  0  0
    9.1150  -27.5461  -13.2534 H   0  0  0  0  0  0  0  0  0  0  0  0
   10.4562  -28.6206  -12.8744 H   0  0  0  0  0  0  0  0  0  0  0  0
   10.0718  -24.7906  -13.9919 H   0  0  0  0  0  0  0  0  0  0  0  0
    9.2362  -26.6351   -7.8757 H   0  0  0  0  0  0  0  0  0  0  0  0
   11.0051  -29.0287   -8.7174 H   0  0  0  0  0  0  0  0  0  0  0  0
   10.9876  -26.8278  -14.5369 H   0  0  0  0  0  0  0  0  0  0  0  0
    8.7868  -28.8033   -8.5535 H   0  0  0  0  0  0  0  0  0  0  0  0
    9.6551  -29.2847  -10.8726 H   0  0  0  0  0  0  0  0  0  0  0  0
  1  3  1  0  0  0  0
  1  4  2  0  0  0  0
  2  3  2  0  0  0  0
  2  5  1  0  0  0  0
  3 13  1  0  0  0  0
  4  6  1  0  0  0  0
  4 20  1  0  0  0  0
  5  6  2  0  0  0  0
  5 21  1  0  0  0  0
  6 26  1  0  0  0  0
  7  8  2  0  0  0  0
  7 14  1  0  0  0  0
  8 15  1  0  0  0  0
  9 11  2  0  0  0  0
  9 16  1  0  0  0  0
 10 12  2  0  0  0  0
 10 17  1  0  0  0  0
 11 20  1  0  0  0  0
 12 21  1  0  0  0  0
 13 27  1  0  0  0  0
 13 28  2  0  0  0  0
 14 18  1  0  0  0  0
 15 22  1  0  0  0  0
 16 23  1  0  0  0  0
 17 24  1  0  0  0  0
 18 22  1  0  0  0  0
 19 23  1  0  0  0  0
 19 26  1  0  0  0  0
 20 23  1  0  0  0  0
 21 24  1  0  0  0  0
 22 25  1  0  0  0  0
 24 25  1  0  0  0  0
 25 26  1  0  0  0  0
  1 29  1  0  0  0  0
  2 30  1  0  0  0  0
  7 31  1  0  0  0  0
  8 32  1  0  0  0  0
  9 33  1  0  0  0  0
 10 34  1  0  0  0  0
 11 35  1  0  0  0  0
 12 36  1  0  0  0  0
 14 37  1  0  0  0  0
 14 38  1  0  0  0  0
 15 39  1  0  0  0  0
 15 40  1  0  0  0  0
 16 41  1  0  0  0  0
 16 42  1  0  0  0  0
 17 43  1  0  0  0  0
 17 44  1  0  0  0  0
 18 45  1  0  0  0  0
 18 46  1  0  0  0  0
 19 47  1  0  0  0  0
 19 48  1  0  0  0  0
 20 49  1  0  0  0  0
 21 50  1  0  0  0  0
 22 51  1  0  0  0  0
 23 52  1  0  0  0  0
 24 53  1  0  0  0  0
 25 54  1  0  0  0  0
M  CHG  1  27  -1
M  END
> <Hybrid2>
-3.905031204223633

> <Hybrid2>
-3.066442

$$$$
C27986021
  -OEChem-02152218513D

 37 40  0     0  0  0  0  0  0999 V2000
   13.1183  -26.7406  -13.2845 C   0  0  0  0  0  0  0  0  0  0  0  0
   11.8769  -26.8222  -13.9152 C   0  0  0  0  0  0  0  0  0  0  0  0
   13.1941  -26.7378  -11.8916 C   0  0  0  0  0  0  0  0  0  0  0  0
    4.9706  -29.7535   -8.5737 C   0  0  0  0  0  0  0  0  0  0  0  0
   10.7112  -26.9008  -13.1531 C   0  0  0  0  0  0  0  0  0  0  0  0
   12.0285  -26.8163  -11.1296 C   0  0  0  0  0  0  0  0  0  0  0  0
    5.5427  -30.9613   -8.1743 C   0  0  0  0  0  0  0  0  0  0  0  0
    5.7678  -28.7559   -9.1348 C   0  0  0  0  0  0  0  0  0  0  0  0
    7.7095  -30.1738   -8.8969 C   0  0  0  0  0  0  0  0  0  0  0  0
    9.0726  -28.1981  -10.5895 C   0  0  0  0  0  0  0  0  0  0  0  0
    6.7459  -24.6970   -9.2259 C   0  0  0  0  0  0  0  0  0  0  0  0
    8.7302  -25.9719  -10.4615 C   0  0  0  0  0  0  0  0  0  0  0  0
   10.7870  -26.8978  -11.7603 C   0  0  0  0  0  0  0  0  0  0  0  0
    9.5872  -26.9785  -10.9755 C   0  0  0  0  0  0  0  0  0  0  0  0
    6.9122  -31.1714   -8.3358 C   0  0  0  0  0  0  0  0  0  0  0  0
    7.1373  -28.9660   -9.2963 C   0  0  0  0  0  0  0  0  0  0  0  0
    7.7125  -26.6196   -9.7719 C   0  0  0  0  0  0  0  0  0  0  0  0
    8.6789  -24.5790  -10.4878 C   0  0  0  0  0  0  0  0  0  0  0  0
    7.5229  -32.4632   -7.9085 C   0  0  0  0  0  0  0  0  0  0  0  0
    6.6840  -26.0406   -9.1280 N   0  0  0  0  0  0  0  0  0  0  0  0
    7.6680  -23.9367   -9.8581 N   0  0  0  0  0  0  0  0  0  0  0  0
    7.9351  -27.9682   -9.8588 N   0  0  0  0  0  0  0  0  0  0  0  0
    9.8979  -23.5546  -11.3204 S   0  5  0  0  0  0  0  0  0  0  0  0
   14.0261  -26.6805  -13.8777 H   0  0  0  0  0  0  0  0  0  0  0  0
   11.8177  -26.8258  -14.9996 H   0  0  0  0  0  0  0  0  0  0  0  0
   14.1609  -26.6755  -11.4008 H   0  0  0  0  0  0  0  0  0  0  0  0
    3.9042  -29.5901   -8.4481 H   0  0  0  0  0  0  0  0  0  0  0  0
    9.7509  -26.9638  -13.6597 H   0  0  0  0  0  0  0  0  0  0  0  0
   12.1045  -26.8129  -10.0447 H   0  0  0  0  0  0  0  0  0  0  0  0
    4.9139  -31.7325   -7.7375 H   0  0  0  0  0  0  0  0  0  0  0  0
    5.3088  -27.8192   -9.4417 H   0  0  0  0  0  0  0  0  0  0  0  0
    8.7776  -30.3420   -9.0197 H   0  0  0  0  0  0  0  0  0  0  0  0
    9.4204  -29.2075  -10.7736 H   0  0  0  0  0  0  0  0  0  0  0  0
    5.9486  -24.1530   -8.7310 H   0  0  0  0  0  0  0  0  0  0  0  0
    7.5090  -33.1841   -8.7351 H   0  0  0  0  0  0  0  0  0  0  0  0
    8.5627  -32.3247   -7.5851 H   0  0  0  0  0  0  0  0  0  0  0  0
    6.9812  -32.8981   -7.0584 H   0  0  0  0  0  0  0  0  0  0  0  0
  1  2  1  0  0  0  0
  1  3  2  0  0  0  0
  2  5  2  0  0  0  0
  3  6  1  0  0  0  0
  4  7  2  0  0  0  0
  4  8  1  0  0  0  0
  5 13  1  0  0  0  0
  6 13  2  0  0  0  0
  7 15  1  0  0  0  0
  8 16  2  0  0  0  0
  9 15  2  0  0  0  0
  9 16  1  0  0  0  0
 10 14  2  0  0  0  0
 10 22  1  0  0  0  0
 11 20  1  0  0  0  0
 11 21  2  0  0  0  0
 12 14  1  0  0  0  0
 12 17  1  0  0  0  0
 12 18  2  0  0  0  0
 13 14  1  0  0  0  0
 15 19  1  0  0  0  0
 16 22  1  0  0  0  0
 17 20  2  0  0  0  0
 17 22  1  0  0  0  0
 18 21  1  0  0  0  0
 18 23  1  0  0  0  0
  1 24  1  0  0  0  0
  2 25  1  0  0  0  0
  3 26  1  0  0  0  0
  4 27  1  0  0  0  0
  5 28  1  0  0  0  0
  6 29  1  0  0  0  0
  7 30  1  0  0  0  0
  8 31  1  0  0  0  0
  9 32  1  0  0  0  0
 10 33  1  0  0  0  0
 11 34  1  0  0  0  0
 19 35  1  0  0  0  0
 19 36  1  0  0  0  0
 19 37  1  0  0  0  0
M  CHG  1  23  -1
M  END
> <Hybrid2>
-9.203269958496094

> <Hybrid2>
-9.203270

$$$$
C27986021
  -OEChem-02152218513D

 37 40  0     0  0  0  0  0  0999 V2000
   13.4884  -27.1127  -12.8824 C   0  0  0  0  0  0  0  0  0  0  0  0
   12.2958  -27.2411  -13.5943 C   0  0  0  0  0  0  0  0  0  0  0  0
   13.4596  -26.9431  -11.4982 C   0  0  0  0  0  0  0  0  0  0  0  0
    6.2060  -30.9158   -8.9888 C   0  0  0  0  0  0  0  0  0  0  0  0
   11.0744  -27.1997  -12.9221 C   0  0  0  0  0  0  0  0  0  0  0  0
   12.2381  -26.9017  -10.8259 C   0  0  0  0  0  0  0  0  0  0  0  0
    5.4190  -30.5055   -7.9128 C   0  0  0  0  0  0  0  0  0  0  0  0
    7.0745  -30.0128   -9.6020 C   0  0  0  0  0  0  0  0  0  0  0  0
    6.3688  -28.2891   -8.0633 C   0  0  0  0  0  0  0  0  0  0  0  0
    9.2067  -28.1388  -10.3589 C   0  0  0  0  0  0  0  0  0  0  0  0
    6.8993  -24.4453   -9.6075 C   0  0  0  0  0  0  0  0  0  0  0  0
    8.9282  -25.9062  -10.5235 C   0  0  0  0  0  0  0  0  0  0  0  0
   11.0455  -27.0300  -11.5378 C   0  0  0  0  0  0  0  0  0  0  0  0
    9.7882  -26.9873  -10.8455 C   0  0  0  0  0  0  0  0  0  0  0  0
    5.5003  -29.1921   -7.4501 C   0  0  0  0  0  0  0  0  0  0  0  0
    7.1559  -28.6994   -9.1393 C   0  0  0  0  0  0  0  0  0  0  0  0
    7.8411  -26.4418   -9.8438 C   0  0  0  0  0  0  0  0  0  0  0  0
    8.9244  -24.5259  -10.7191 C   0  0  0  0  0  0  0  0  0  0  0  0
    4.6584  -28.7545   -6.2994 C   0  0  0  0  0  0  0  0  0  0  0  0
    6.7867  -25.7654   -9.3558 N   0  0  0  0  0  0  0  0  0  0  0  0
    7.8906  -23.7888  -10.2514 N   0  0  0  0  0  0  0  0  0  0  0  0
    8.0257  -27.7959   -9.7520 N   0  0  0  0  0  0  0  0  0  0  0  0
   10.2351  -23.6383  -11.5693 S   0  5  0  0  0  0  0  0  0  0  0  0
   14.4396  -27.1459  -13.4056 H   0  0  0  0  0  0  0  0  0  0  0  0
   12.3181  -27.3744  -14.6719 H   0  0  0  0  0  0  0  0  0  0  0  0
   14.3883  -26.8444  -10.9440 H   0  0  0  0  0  0  0  0  0  0  0  0
    6.1429  -31.9385   -9.3489 H   0  0  0  0  0  0  0  0  0  0  0  0
   10.1532  -27.3012  -13.4912 H   0  0  0  0  0  0  0  0  0  0  0  0
   12.2326  -26.7689   -9.7465 H   0  0  0  0  0  0  0  0  0  0  0  0
    4.7447  -31.2157   -7.4418 H   0  0  0  0  0  0  0  0  0  0  0  0
    7.6823  -30.3459  -10.4399 H   0  0  0  0  0  0  0  0  0  0  0  0
    6.4277  -27.2652   -7.6994 H   0  0  0  0  0  0  0  0  0  0  0  0
    9.5344  -29.1709  -10.3939 H   0  0  0  0  0  0  0  0  0  0  0  0
    6.0853  -23.8270   -9.2448 H   0  0  0  0  0  0  0  0  0  0  0  0
    5.1894  -28.9181   -5.3537 H   0  0  0  0  0  0  0  0  0  0  0  0
    4.4026  -27.6897   -6.3751 H   0  0  0  0  0  0  0  0  0  0  0  0
    3.7104  -29.3073   -6.2664 H   0  0  0  0  0  0  0  0  0  0  0  0
  1  2  1  0  0  0  0
  1  3  2  0  0  0  0
  2  5  2  0  0  0  0
  3  6  1  0  0  0  0
  4  7  2  0  0  0  0
  4  8  1  0  0  0  0
  5 13  1  0  0  0  0
  6 13  2  0  0  0  0
  7 15  1  0  0  0  0
  8 16  2  0  0  0  0
  9 15  2  0  0  0  0
  9 16  1  0  0  0  0
 10 14  2  0  0  0  0
 10 22  1  0  0  0  0
 11 20  1  0  0  0  0
 11 21  2  0  0  0  0
 12 14  1  0  0  0  0
 12 17  1  0  0  0  0
 12 18  2  0  0  0  0
 13 14  1  0  0  0  0
 15 19  1  0  0  0  0
 16 22  1  0  0  0  0
 17 20  2  0  0  0  0
 17 22  1  0  0  0  0
 18 21  1  0  0  0  0
 18 23  1  0  0  0  0
  1 24  1  0  0  0  0
  2 25  1  0  0  0  0
  3 26  1  0  0  0  0
  4 27  1  0  0  0  0
  5 28  1  0  0  0  0
  6 29  1  0  0  0  0
  7 30  1  0  0  0  0
  8 31  1  0  0  0  0
  9 32  1  0  0  0  0
 10 33  1  0  0  0  0
 11 34  1  0  0  0  0
 19 35  1  0  0  0  0
 19 36  1  0  0  0  0
 19 37  1  0  0  0  0
M  CHG  1  23  -1
M  END
> <Hybrid2>
-9.203269958496094

> <Hybrid2>
-7.892765

$$$$
C04878577
  -OEChem-02152218513D

 44 45  0     0  0  0  0  0  0999 V2000
   13.9939  -26.0385  -11.2416 C   0  0  0  0  0  0  0  0  0  0  0  0
   13.7785  -26.6334  -12.4816 C   0  0  0  0  0  0  0  0  0  0  0  0
   12.9088  -25.6097  -10.4779 C   0  0  0  0  0  0  0  0  0  0  0  0
   12.4779  -26.7999  -12.9586 C   0  0  0  0  0  0  0  0  0  0  0  0
   11.6028  -25.7770  -10.9575 C   0  0  0  0  0  0  0  0  0  0  0  0
   11.3842  -26.3699  -12.1936 C   0  0  0  0  0  0  0  0  0  0  0  0
   10.4675  -25.3231  -10.1491 C   0  0  0  0  0  0  0  0  0  0  0  0
   10.0162  -26.5522  -12.7112 C   0  0  0  0  0  0  0  0  0  0  0  0
    9.0901  -25.5209  -10.6896 C   0  0  0  0  0  0  0  0  0  0  0  0
    8.8291  -26.0938  -11.8880 C   0  0  0  0  0  0  0  0  0  0  0  0
    7.5640  -26.0847   -8.8163 C   0  0  0  0  0  0  0  0  0  0  0  0
    6.3186  -29.5906   -9.3463 C   0  0  0  0  0  0  0  0  0  0  0  0
    6.3268  -26.5995   -8.6703 C   0  0  0  0  0  0  0  0  0  0  0  0
    7.1590  -30.6202   -9.1303 C   0  0  0  0  0  0  0  0  0  0  0  0
    5.1995  -26.1044   -9.5406 C   0  0  0  0  0  0  0  0  0  0  0  0
    8.0278  -31.1393  -10.2454 C   0  0  0  0  0  0  0  0  0  0  0  0
    7.3385  -31.3371   -7.8226 C   0  0  0  0  0  0  0  0  0  0  0  0
    8.0181  -25.0239   -9.7772 C   0  0  0  0  0  0  0  0  0  0  0  0
    5.3658  -28.9500   -8.3755 C   0  0  0  0  0  0  0  0  0  0  0  0
    5.9542  -27.7031   -7.7025 C   0  0  0  0  0  0  0  0  0  0  0  0
    7.7174  -26.3147  -12.4495 O   0  5  0  0  0  0  0  0  0  0  0  0
   10.6582  -24.7968   -9.0577 O   0  0  0  0  0  0  0  0  0  0  0  0
    9.8718  -27.0798  -13.8132 O   0  0  0  0  0  0  0  0  0  0  0  0
   15.0058  -25.9094  -10.8691 H   0  0  0  0  0  0  0  0  0  0  0  0
   14.6225  -26.9691  -13.0771 H   0  0  0  0  0  0  0  0  0  0  0  0
   13.1015  -25.1484   -9.5129 H   0  0  0  0  0  0  0  0  0  0  0  0
   12.3391  -27.2695  -13.9290 H   0  0  0  0  0  0  0  0  0  0  0  0
    8.3507  -26.4651   -8.1643 H   0  0  0  0  0  0  0  0  0  0  0  0
    6.2941  -29.1533  -10.3440 H   0  0  0  0  0  0  0  0  0  0  0  0
    5.1289  -26.6986  -10.4565 H   0  0  0  0  0  0  0  0  0  0  0  0
    5.3651  -25.0578   -9.8167 H   0  0  0  0  0  0  0  0  0  0  0  0
    4.2283  -26.1615   -9.0376 H   0  0  0  0  0  0  0  0  0  0  0  0
    8.9979  -30.6330  -10.2902 H   0  0  0  0  0  0  0  0  0  0  0  0
    7.5319  -30.9927  -11.2106 H   0  0  0  0  0  0  0  0  0  0  0  0
    8.2187  -32.2092  -10.1117 H   0  0  0  0  0  0  0  0  0  0  0  0
    6.6394  -32.1778   -7.7573 H   0  0  0  0  0  0  0  0  0  0  0  0
    8.3411  -31.7435   -7.6788 H   0  0  0  0  0  0  0  0  0  0  0  0
    7.1357  -30.6557   -6.9898 H   0  0  0  0  0  0  0  0  0  0  0  0
    8.4133  -24.1817   -9.1979 H   0  0  0  0  0  0  0  0  0  0  0  0
    7.2042  -24.6343  -10.3925 H   0  0  0  0  0  0  0  0  0  0  0  0
    4.9991  -29.6543   -7.6240 H   0  0  0  0  0  0  0  0  0  0  0  0
    4.4776  -28.6461   -8.9445 H   0  0  0  0  0  0  0  0  0  0  0  0
    6.8596  -27.9981   -7.1553 H   0  0  0  0  0  0  0  0  0  0  0  0
    5.2690  -27.3439   -6.9271 H   0  0  0  0  0  0  0  0  0  0  0  0
  1  2  1  0  0  0  0
  1  3  2  0  0  0  0
  2  4  2  0  0  0  0
  3  5  1  0  0  0  0
  4  6  1  0  0  0  0
  5  6  2  0  0  0  0
  5  7  1  0  0  0  0
  6  8  1  0  0  0  0
  7  9  1  0  0  0  0
  7 22  2  0  0  0  0
  8 10  1  0  0  0  0
  8 23  2  0  0  0  0
  9 10  2  0  0  0  0
  9 18  1  0  0  0  0
 10 21  1  0  0  0  0
 11 13  2  0  0  0  0
 11 18  1  0  0  0  0
 12 14  2  0  0  0  0
 12 19  1  0  0  0  0
 13 15  1  0  0  0  0
 13 20  1  0  0  0  0
 14 16  1  0  0  0  0
 14 17  1  0  0  0  0
 19 20  1  0  0  0  0
  1 24  1  0  0  0  0
  2 25  1  0  0  0  0
  3 26  1  0  0  0  0
  4 27  1  0  0  0  0
 11 28  1  0  0  0  0
 12 29  1  0  0  0  0
 15 30  1  0  0  0  0
 15 31  1  0  0  0  0
 15 32  1  0  0  0  0
 16 33  1  0  0  0  0
 16 34  1  0  0  0  0
 16 35  1  0  0  0  0
 17 36  1  0  0  0  0
 17 37  1  0  0  0  0
 17 38  1  0  0  0  0
 18 39  1  0  0  0  0
 18 40  1  0  0  0  0
 19 41  1  0  0  0  0
 19 42  1  0  0  0  0
 20 43  1  0  0  0  0
 20 44  1  0  0  0  0
M  CHG  1  21  -1
M  END
> <Hybrid2>
-4.038572311401367

> <Hybrid2>
-4.038572

$$$$
C04878577
  -OEChem-02152218513D

 44 45  0     0  0  0  0  0  0999 V2000
   13.4438  -27.1006  -11.6604 C   0  0  0  0  0  0  0  0  0  0  0  0
   13.0173  -27.1780  -12.9832 C   0  0  0  0  0  0  0  0  0  0  0  0
   12.5357  -26.7711  -10.6548 C   0  0  0  0  0  0  0  0  0  0  0  0
   11.6823  -26.9260  -13.3013 C   0  0  0  0  0  0  0  0  0  0  0  0
   11.1951  -26.5180  -10.9748 C   0  0  0  0  0  0  0  0  0  0  0  0
   10.7661  -26.5943  -12.2929 C   0  0  0  0  0  0  0  0  0  0  0  0
   10.2467  -26.1717   -9.9122 C   0  0  0  0  0  0  0  0  0  0  0  0
    9.3593  -26.3304  -12.6446 C   0  0  0  0  0  0  0  0  0  0  0  0
    8.8257  -25.9123  -10.2890 C   0  0  0  0  0  0  0  0  0  0  0  0
    8.3625  -25.9755  -11.5594 C   0  0  0  0  0  0  0  0  0  0  0  0
    7.3458  -26.7993   -8.5059 C   0  0  0  0  0  0  0  0  0  0  0  0
    5.3230  -29.6102   -9.9655 C   0  0  0  0  0  0  0  0  0  0  0  0
    6.0385  -27.0954   -8.3631 C   0  0  0  0  0  0  0  0  0  0  0  0
    5.9280  -30.7868  -10.2154 C   0  0  0  0  0  0  0  0  0  0  0  0
    4.9912  -26.1305   -8.8586 C   0  0  0  0  0  0  0  0  0  0  0  0
    6.5815  -31.0376  -11.5488 C   0  0  0  0  0  0  0  0  0  0  0  0
    6.0345  -31.9327   -9.2501 C   0  0  0  0  0  0  0  0  0  0  0  0
    7.9557  -25.5741   -9.1240 C   0  0  0  0  0  0  0  0  0  0  0  0
    4.6046  -29.1822   -8.7159 C   0  0  0  0  0  0  0  0  0  0  0  0
    5.4990  -28.3773   -7.7640 C   0  0  0  0  0  0  0  0  0  0  0  0
    7.1934  -25.7790  -12.0006 O   0  5  0  0  0  0  0  0  0  0  0  0
   10.6238  -26.1013   -8.7472 O   0  0  0  0  0  0  0  0  0  0  0  0
    9.0262  -26.4067  -13.8264 O   0  0  0  0  0  0  0  0  0  0  0  0
   14.4826  -27.2975  -11.4118 H   0  0  0  0  0  0  0  0  0  0  0  0
   13.7231  -27.4357  -13.7675 H   0  0  0  0  0  0  0  0  0  0  0  0
   12.8917  -26.7171   -9.6294 H   0  0  0  0  0  0  0  0  0  0  0  0
   11.3765  -26.9957  -14.3420 H   0  0  0  0  0  0  0  0  0  0  0  0
    8.0720  -27.5202   -8.1298 H   0  0  0  0  0  0  0  0  0  0  0  0
    5.3269  -28.8575  -10.7533 H   0  0  0  0  0  0  0  0  0  0  0  0
    4.7280  -26.3463   -9.8984 H   0  0  0  0  0  0  0  0  0  0  0  0
    5.3645  -25.1028   -8.8003 H   0  0  0  0  0  0  0  0  0  0  0  0
    4.0684  -26.1785   -8.2705 H   0  0  0  0  0  0  0  0  0  0  0  0
    7.6340  -30.7352  -11.5622 H   0  0  0  0  0  0  0  0  0  0  0  0
    6.0648  -30.4767  -12.3345 H   0  0  0  0  0  0  0  0  0  0  0  0
    6.5400  -32.1031  -11.7977 H   0  0  0  0  0  0  0  0  0  0  0  0
    5.1731  -32.5997   -9.3640 H   0  0  0  0  0  0  0  0  0  0  0  0
    6.9300  -32.5411   -9.3881 H   0  0  0  0  0  0  0  0  0  0  0  0
    6.0452  -31.5575   -8.2215 H   0  0  0  0  0  0  0  0  0  0  0  0
    8.5662  -25.0733   -8.3641 H   0  0  0  0  0  0  0  0  0  0  0  0
    7.2074  -24.8525   -9.4591 H   0  0  0  0  0  0  0  0  0  0  0  0
    4.1441  -30.0230   -8.1903 H   0  0  0  0  0  0  0  0  0  0  0  0
    3.7684  -28.5417   -9.0251 H   0  0  0  0  0  0  0  0  0  0  0  0
    6.3524  -29.0052   -7.4748 H   0  0  0  0  0  0  0  0  0  0  0  0
    4.9653  -28.1896   -6.8261 H   0  0  0  0  0  0  0  0  0  0  0  0
  1  2  1  0  0  0  0
  1  3  2  0  0  0  0
  2  4  2  0  0  0  0
  3  5  1  0  0  0  0
  4  6  1  0  0  0  0
  5  6  2  0  0  0  0
  5  7  1  0  0  0  0
  6  8  1  0  0  0  0
  7  9  1  0  0  0  0
  7 22  2  0  0  0  0
  8 10  1  0  0  0  0
  8 23  2  0  0  0  0
  9 10  2  0  0  0  0
  9 18  1  0  0  0  0
 10 21  1  0  0  0  0
 11 13  2  0  0  0  0
 11 18  1  0  0  0  0
 12 14  2  0  0  0  0
 12 19  1  0  0  0  0
 13 15  1  0  0  0  0
 13 20  1  0  0  0  0
 14 16  1  0  0  0  0
 14 17  1  0  0  0  0
 19 20  1  0  0  0  0
  1 24  1  0  0  0  0
  2 25  1  0  0  0  0
  3 26  1  0  0  0  0
  4 27  1  0  0  0  0
 11 28  1  0  0  0  0
 12 29  1  0  0  0  0
 15 30  1  0  0  0  0
 15 31  1  0  0  0  0
 15 32  1  0  0  0  0
 16 33  1  0  0  0  0
 16 34  1  0  0  0  0
 16 35  1  0  0  0  0
 17 36  1  0  0  0  0
 17 37  1  0  0  0  0
 17 38  1  0  0  0  0
 18 39  1  0  0  0  0
 18 40  1  0  0  0  0
 19 41  1  0  0  0  0
 19 42  1  0  0  0  0
 20 43  1  0  0  0  0
 20 44  1  0  0  0  0
M  CHG  1  21  -1
M  END
> <Hybrid2>
-4.038572311401367

> <Hybrid2>
-3.362160

$$$$
C05426619
  -OEChem-02152218513D

 38 41  0     1  0  0  0  0  0999 V2000
   13.1406  -26.9225   -9.1497 C   0  0  0  0  0  0  0  0  0  0  0  0
   12.6516  -26.9027  -11.5156 C   0  0  0  0  0  0  0  0  0  0  0  0
   14.4124  -27.4291   -9.4168 C   0  0  0  0  0  0  0  0  0  0  0  0
   13.9235  -27.4092  -11.7827 C   0  0  0  0  0  0  0  0  0  0  0  0
    6.1747  -26.4779   -8.3247 C   0  0  0  0  0  0  0  0  0  0  0  0
    5.7297  -27.3311   -7.3150 C   0  0  0  0  0  0  0  0  0  0  0  0
    6.8969  -28.3861   -9.6187 C   0  0  0  0  0  0  0  0  0  0  0  0
   12.2601  -26.6594  -10.1991 C   0  0  0  0  0  0  0  0  0  0  0  0
   14.8039  -27.6724  -10.7333 C   0  0  0  0  0  0  0  0  0  0  0  0
    6.7582  -27.0055   -9.4767 C   0  0  0  0  0  0  0  0  0  0  0  0
    5.8683  -28.7118   -7.4570 C   0  0  0  0  0  0  0  0  0  0  0  0
    6.4519  -29.2393   -8.6089 C   0  0  0  0  0  0  0  0  0  0  0  0
    8.4852  -26.0624  -10.9370 C   0  0  0  0  0  0  0  0  0  0  0  0
    6.4931  -25.2514  -11.2244 C   0  0  0  0  0  0  0  0  0  0  0  0
   10.0057  -26.8546   -8.9574 C   0  0  0  0  0  0  0  0  0  0  0  0
   10.9009  -26.1186   -9.9140 C   0  0  2  0  0  0  0  0  0  0  0  0
    9.6890  -26.8770  -10.4299 C   0  0  2  0  0  0  0  0  0  0  0  0
   16.1646  -28.2118  -11.0195 C   0  0  0  0  0  0  0  0  0  0  0  0
    8.5591  -25.1636  -11.8925 N   0  0  0  0  0  0  0  0  0  0  0  0
    7.2916  -24.6476  -12.0753 N   0  0  0  0  0  0  0  0  0  0  0  0
    7.2027  -26.1504  -10.4874 N   0  0  0  0  0  0  0  0  0  0  0  0
    5.4360  -29.5187   -6.4775 F   0  0  0  0  0  0  0  0  0  0  0  0
    4.8258  -24.9578  -11.0679 S   0  5  0  0  0  0  0  0  0  0  0  0
    6.6244  -30.9426   -8.7900 Cl  0  0  0  0  0  0  0  0  0  0  0  0
   12.8453  -26.7362   -8.1205 H   0  0  0  0  0  0  0  0  0  0  0  0
   11.9727  -26.7005  -12.3399 H   0  0  0  0  0  0  0  0  0  0  0  0
   15.0915  -27.6317   -8.5926 H   0  0  0  0  0  0  0  0  0  0  0  0
   14.2200  -27.5965  -12.8114 H   0  0  0  0  0  0  0  0  0  0  0  0
    6.0595  -25.4039   -8.2015 H   0  0  0  0  0  0  0  0  0  0  0  0
    5.2734  -26.9209   -6.4188 H   0  0  0  0  0  0  0  0  0  0  0  0
    7.3523  -28.7964  -10.5181 H   0  0  0  0  0  0  0  0  0  0  0  0
   10.3594  -27.7755   -8.5076 H   0  0  0  0  0  0  0  0  0  0  0  0
    9.3840  -26.2587   -8.2988 H   0  0  0  0  0  0  0  0  0  0  0  0
   10.8357  -25.0369   -9.8914 H   0  0  0  0  0  0  0  0  0  0  0  0
    9.8503  -27.8127  -10.9535 H   0  0  0  0  0  0  0  0  0  0  0  0
   16.1474  -29.3085  -11.0244 H   0  0  0  0  0  0  0  0  0  0  0  0
   16.5338  -27.8653  -11.9935 H   0  0  0  0  0  0  0  0  0  0  0  0
   16.8916  -27.8784  -10.2675 H   0  0  0  0  0  0  0  0  0  0  0  0
  1  3  2  0  0  0  0
  1  8  1  0  0  0  0
  2  4  1  0  0  0  0
  2  8  2  0  0  0  0
  3  9  1  0  0  0  0
  4  9  2  0  0  0  0
  5  6  2  0  0  0  0
  5 10  1  0  0  0  0
  6 11  1  0  0  0  0
  7 10  2  0  0  0  0
  7 12  1  0  0  0  0
  8 16  1  0  0  0  0
  9 18  1  0  0  0  0
 10 21  1  0  0  0  0
 11 12  2  0  0  0  0
 11 22  1  0  0  0  0
 12 24  1  0  0  0  0
 13 17  1  0  0  0  0
 13 19  2  0  0  0  0
 13 21  1  0  0  0  0
 14 20  2  0  0  0  0
 14 21  1  0  0  0  0
 14 23  1  0  0  0  0
 15 16  1  0  0  0  0
 15 17  1  0  0  0  0
 16 17  1  0  0  0  0
 19 20  1  0  0  0  0
  1 25  1  0  0  0  0
  2 26  1  0  0  0  0
  3 27  1  0  0  0  0
  4 28  1  0  0  0  0
  5 29  1  0  0  0  0
  6 30  1  0  0  0  0
  7 31  1  0  0  0  0
 15 32  1  0  0  0  0
 15 33  1  0  0  0  0
 16 34  1  0  0  0  0
 17 35  1  0  0  0  0
 18 36  1  0  0  0  0
 18 37  1  0  0  0  0
 18 38  1  0  0  0  0
M  CHG  1  23  -1
M  END
> <Hybrid2>
-4.641685485839844

> <Hybrid2>
-4.641685

$$$$
C05426619
  -OEChem-02152218513D

 38 41  0     1  0  0  0  0  0999 V2000
   12.2430  -27.0190  -10.9673 C   0  0  0  0  0  0  0  0  0  0  0  0
   10.9901  -25.5820  -12.4514 C   0  0  0  0  0  0  0  0  0  0  0  0
   13.2892  -27.0587  -11.8890 C   0  0  0  0  0  0  0  0  0  0  0  0
   12.0363  -25.6216  -13.3730 C   0  0  0  0  0  0  0  0  0  0  0  0
    6.0899  -28.7180  -10.2057 C   0  0  0  0  0  0  0  0  0  0  0  0
    5.9254  -30.0691   -9.9007 C   0  0  0  0  0  0  0  0  0  0  0  0
    6.0518  -28.1815   -7.8504 C   0  0  0  0  0  0  0  0  0  0  0  0
   11.0934  -26.2807  -11.2485 C   0  0  0  0  0  0  0  0  0  0  0  0
   13.1859  -26.3600  -13.0918 C   0  0  0  0  0  0  0  0  0  0  0  0
    6.1532  -27.7742   -9.1806 C   0  0  0  0  0  0  0  0  0  0  0  0
    5.8240  -30.4764   -8.5705 C   0  0  0  0  0  0  0  0  0  0  0  0
    5.8872  -29.5326   -7.5453 C   0  0  0  0  0  0  0  0  0  0  0  0
    7.3763  -25.8910  -10.1613 C   0  0  0  0  0  0  0  0  0  0  0  0
    5.5015  -25.3708   -9.2002 C   0  0  0  0  0  0  0  0  0  0  0  0
    9.3822  -27.5293   -9.7736 C   0  0  0  0  0  0  0  0  0  0  0  0
    9.9751  -26.2385  -10.2643 C   0  0  2  0  0  0  0  0  0  0  0  0
    8.5873  -26.6632  -10.7154 C   0  0  2  0  0  0  0  0  0  0  0  0
   14.3053  -26.4001  -14.0765 C   0  0  0  0  0  0  0  0  0  0  0  0
    7.2183  -24.5921  -10.2812 N   0  0  0  0  0  0  0  0  0  0  0  0
    6.0255  -24.2612   -9.6698 N   0  0  0  0  0  0  0  0  0  0  0  0
    6.3187  -26.4218   -9.4871 N   0  0  0  0  0  0  0  0  0  0  0  0
    5.6658  -31.7786   -8.2933 F   0  0  0  0  0  0  0  0  0  0  0  0
    4.0256  -25.4797   -8.3635 S   0  5  0  0  0  0  0  0  0  0  0  0
    5.7639  -30.0299   -5.9017 Cl  0  0  0  0  0  0  0  0  0  0  0  0
   12.3334  -27.5667  -10.0330 H   0  0  0  0  0  0  0  0  0  0  0  0
   10.0985  -25.0038  -12.6793 H   0  0  0  0  0  0  0  0  0  0  0  0
   14.1808  -27.6372  -11.6615 H   0  0  0  0  0  0  0  0  0  0  0  0
   11.9472  -25.0748  -14.3081 H   0  0  0  0  0  0  0  0  0  0  0  0
    6.1686  -28.4145  -11.2468 H   0  0  0  0  0  0  0  0  0  0  0  0
    5.8782  -30.8045  -10.6985 H   0  0  0  0  0  0  0  0  0  0  0  0
    6.1014  -27.4440   -7.0514 H   0  0  0  0  0  0  0  0  0  0  0  0
    9.7673  -28.4662  -10.1600 H   0  0  0  0  0  0  0  0  0  0  0  0
    9.0857  -27.5766   -8.7319 H   0  0  0  0  0  0  0  0  0  0  0  0
   10.0361  -25.4359   -9.5385 H   0  0  0  0  0  0  0  0  0  0  0  0
    8.4627  -27.0252  -11.7298 H   0  0  0  0  0  0  0  0  0  0  0  0
   14.1716  -27.2370  -14.7728 H   0  0  0  0  0  0  0  0  0  0  0  0
   14.3590  -25.4699  -14.6569 H   0  0  0  0  0  0  0  0  0  0  0  0
   15.2742  -26.5171  -13.5737 H   0  0  0  0  0  0  0  0  0  0  0  0
  1  3  2  0  0  0  0
  1  8  1  0  0  0  0
  2  4  1  0  0  0  0
  2  8  2  0  0  0  0
  3  9  1  0  0  0  0
  4  9  2  0  0  0  0
  5  6  2  0  0  0  0
  5 10  1  0  0  0  0
  6 11  1  0  0  0  0
  7 10  2  0  0  0  0
  7 12  1  0  0  0  0
  8 16  1  0  0  0  0
  9 18  1  0  0  0  0
 10 21  1  0  0  0  0
 11 12  2  0  0  0  0
 11 22  1  0  0  0  0
 12 24  1  0  0  0  0
 13 17  1  0  0  0  0
 13 19  2  0  0  0  0
 13 21  1  0  0  0  0
 14 20  2  0  0  0  0
 14 21  1  0  0  0  0
 14 23  1  0  0  0  0
 15 16  1  0  0  0  0
 15 17  1  0  0  0  0
 16 17  1  0  0  0  0
 19 20  1  0  0  0  0
  1 25  1  0  0  0  0
  2 26  1  0  0  0  0
  3 27  1  0  0  0  0
  4 28  1  0  0  0  0
  5 29  1  0  0  0  0
  6 30  1  0  0  0  0
  7 31  1  0  0  0  0
 15 32  1  0  0  0  0
 15 33  1  0  0  0  0
 16 34  1  0  0  0  0
 17 35  1  0  0  0  0
 18 36  1  0  0  0  0
 18 37  1  0  0  0  0
 18 38  1  0  0  0  0
M  CHG  1  23  -1
M  END
> <Hybrid2>
-4.641685485839844

> <Hybrid2>
-4.628374

$$$$
C06351901
  -OEChem-02152218513D

 40 42  0     0  0  0  0  0  0999 V2000
    7.3781  -22.3610   -9.8173 C   0  0  0  0  0  0  0  0  0  0  0  0
    7.0005  -22.8760   -8.5773 C   0  0  0  0  0  0  0  0  0  0  0  0
    7.5016  -23.2104  -10.9169 C   0  0  0  0  0  0  0  0  0  0  0  0
    6.7465  -24.2403   -8.4367 C   0  0  0  0  0  0  0  0  0  0  0  0
    7.2477  -24.5747  -10.7763 C   0  0  0  0  0  0  0  0  0  0  0  0
   10.5622  -27.6735  -11.6831 C   0  0  0  0  0  0  0  0  0  0  0  0
   11.0227  -26.3897   -9.6889 C   0  0  0  0  0  0  0  0  0  0  0  0
    9.2456  -27.8573  -11.2607 C   0  0  0  0  0  0  0  0  0  0  0  0
    9.7061  -26.5735   -9.2665 C   0  0  0  0  0  0  0  0  0  0  0  0
    6.8701  -25.0897   -9.5362 C   0  0  0  0  0  0  0  0  0  0  0  0
   11.4508  -26.9397  -10.8971 C   0  0  0  0  0  0  0  0  0  0  0  0
    8.8175  -27.3073  -10.0524 C   0  0  0  0  0  0  0  0  0  0  0  0
    6.6061  -26.5024   -9.3906 C   0  0  0  0  0  0  0  0  0  0  0  0
    6.8609  -28.6574   -9.3758 C   0  0  0  0  0  0  0  0  0  0  0  0
   16.1557  -28.7185  -10.7453 C   0  0  0  0  0  0  0  0  0  0  0  0
   12.8741  -26.7409  -11.3537 C   0  0  0  0  0  0  0  0  0  0  0  0
   15.2361  -27.6328  -11.2813 C   0  0  0  0  0  0  0  0  0  0  0  0
   13.7885  -27.8588  -10.8451 C   0  0  0  0  0  0  0  0  0  0  0  0
    5.4662  -27.0320   -9.0078 N   0  0  0  0  0  0  0  0  0  0  0  0
    5.6283  -28.4030   -8.9984 N   0  0  0  0  0  0  0  0  0  0  0  0
    7.5126  -27.4895   -9.6329 N   0  0  0  0  0  0  0  0  0  0  0  0
    7.5378  -30.2103   -9.5207 S   0  5  0  0  0  0  0  0  0  0  0  0
    7.5753  -21.2986   -9.9269 H   0  0  0  0  0  0  0  0  0  0  0  0
    6.9045  -22.2144   -7.7212 H   0  0  0  0  0  0  0  0  0  0  0  0
    7.7946  -22.8092  -11.8828 H   0  0  0  0  0  0  0  0  0  0  0  0
    6.4505  -24.6259   -7.4640 H   0  0  0  0  0  0  0  0  0  0  0  0
    7.3495  -25.2238  -11.6428 H   0  0  0  0  0  0  0  0  0  0  0  0
   10.8877  -28.1052  -12.6258 H   0  0  0  0  0  0  0  0  0  0  0  0
   11.7081  -25.8167   -9.0700 H   0  0  0  0  0  0  0  0  0  0  0  0
    8.5633  -28.4321  -11.8824 H   0  0  0  0  0  0  0  0  0  0  0  0
    9.3864  -26.1393   -8.3223 H   0  0  0  0  0  0  0  0  0  0  0  0
   16.1183  -28.7599   -9.6521 H   0  0  0  0  0  0  0  0  0  0  0  0
   17.1924  -28.5388  -11.0475 H   0  0  0  0  0  0  0  0  0  0  0  0
   15.8535  -29.6966  -11.1326 H   0  0  0  0  0  0  0  0  0  0  0  0
   12.9095  -26.7016  -12.4501 H   0  0  0  0  0  0  0  0  0  0  0  0
   13.2440  -25.7691  -11.0018 H   0  0  0  0  0  0  0  0  0  0  0  0
   15.2972  -27.6182  -12.3757 H   0  0  0  0  0  0  0  0  0  0  0  0
   15.5851  -26.6573  -10.9232 H   0  0  0  0  0  0  0  0  0  0  0  0
   13.4386  -28.8278  -11.2236 H   0  0  0  0  0  0  0  0  0  0  0  0
   13.7391  -27.9117   -9.7500 H   0  0  0  0  0  0  0  0  0  0  0  0
  1  2  1  0  0  0  0
  1  3  2  0  0  0  0
  2  4  2  0  0  0  0
  3  5  1  0  0  0  0
  4 10  1  0  0  0  0
  5 10  2  0  0  0  0
  6  8  2  0  0  0  0
  6 11  1  0  0  0  0
  7  9  1  0  0  0  0
  7 11  2  0  0  0  0
  8 12  1  0  0  0  0
  9 12  2  0  0  0  0
 10 13  1  0  0  0  0
 11 16  1  0  0  0  0
 12 21  1  0  0  0  0
 13 19  2  0  0  0  0
 13 21  1  0  0  0  0
 14 20  2  0  0  0  0
 14 21  1  0  0  0  0
 14 22  1  0  0  0  0
 15 17  1  0  0  0  0
 16 18  1  0  0  0  0
 17 18  1  0  0  0  0
 19 20  1  0  0  0  0
  1 23  1  0  0  0  0
  2 24  1  0  0  0  0
  3 25  1  0  0  0  0
  4 26  1  0  0  0  0
  5 27  1  0  0  0  0
  6 28  1  0  0  0  0
  7 29  1  0  0  0  0
  8 30  1  0  0  0  0
  9 31  1  0  0  0  0
 15 32  1  0  0  0  0
 15 33  1  0  0  0  0
 15 34  1  0  0  0  0
 16 35  1  0  0  0  0
 16 36  1  0  0  0  0
 17 37  1  0  0  0  0
 17 38  1  0  0  0  0
 18 39  1  0  0  0  0
 18 40  1  0  0  0  0
M  CHG  1  22  -1
M  END
> <Hybrid2>
-6.285789489746094

> <Hybrid2>
-6.285789

$$$$
C06351901
  -OEChem-02152218513D

 40 42  0     0  0  0  0  0  0999 V2000
    7.3825  -22.1751  -10.5501 C   0  0  0  0  0  0  0  0  0  0  0  0
    7.0101  -22.4646   -9.2375 C   0  0  0  0  0  0  0  0  0  0  0  0
    7.5032  -23.2043  -11.4839 C   0  0  0  0  0  0  0  0  0  0  0  0
    6.7585  -23.7832   -8.8585 C   0  0  0  0  0  0  0  0  0  0  0  0
    7.2515  -24.5229  -11.1050 C   0  0  0  0  0  0  0  0  0  0  0  0
   10.5668  -27.7305  -11.4663 C   0  0  0  0  0  0  0  0  0  0  0  0
   11.0330  -26.1162   -9.7302 C   0  0  0  0  0  0  0  0  0  0  0  0
    9.2521  -27.8382  -11.0131 C   0  0  0  0  0  0  0  0  0  0  0  0
    9.7181  -26.2239   -9.2771 C   0  0  0  0  0  0  0  0  0  0  0  0
    6.8792  -24.8124   -9.7923 C   0  0  0  0  0  0  0  0  0  0  0  0
   11.4573  -26.8695  -10.8248 C   0  0  0  0  0  0  0  0  0  0  0  0
    8.8277  -27.0849   -9.9185 C   0  0  0  0  0  0  0  0  0  0  0  0
    6.6176  -26.1778   -9.3999 C   0  0  0  0  0  0  0  0  0  0  0  0
    6.8753  -28.2965   -9.0079 C   0  0  0  0  0  0  0  0  0  0  0  0
   16.1652  -28.5908  -10.3810 C   0  0  0  0  0  0  0  0  0  0  0  0
   12.8787  -26.7530  -11.3146 C   0  0  0  0  0  0  0  0  0  0  0  0
   15.2422  -27.6168  -11.0957 C   0  0  0  0  0  0  0  0  0  0  0  0
   13.7965  -27.7637  -10.6211 C   0  0  0  0  0  0  0  0  0  0  0  0
    5.4799  -26.6327   -8.9256 N   0  0  0  0  0  0  0  0  0  0  0  0
    5.6438  -27.9806   -8.6763 N   0  0  0  0  0  0  0  0  0  0  0  0
    7.5245  -27.1915   -9.4686 N   0  0  0  0  0  0  0  0  0  0  0  0
    7.5538  -29.8503   -8.8805 S   0  5  0  0  0  0  0  0  0  0  0  0
    7.5778  -21.1483  -10.8453 H   0  0  0  0  0  0  0  0  0  0  0  0
    6.9164  -21.6631   -8.5105 H   0  0  0  0  0  0  0  0  0  0  0  0
    7.7921  -22.9788  -12.5064 H   0  0  0  0  0  0  0  0  0  0  0  0
    6.4665  -23.9922   -7.8321 H   0  0  0  0  0  0  0  0  0  0  0  0
    7.3510  -25.3140  -11.8444 H   0  0  0  0  0  0  0  0  0  0  0  0
   10.8895  -28.3209  -12.3197 H   0  0  0  0  0  0  0  0  0  0  0  0
   11.7199  -25.4430   -9.2242 H   0  0  0  0  0  0  0  0  0  0  0  0
    8.5683  -28.5137  -11.5216 H   0  0  0  0  0  0  0  0  0  0  0  0
    9.4013  -25.6308   -8.4226 H   0  0  0  0  0  0  0  0  0  0  0  0
   16.1318  -28.4396   -9.2974 H   0  0  0  0  0  0  0  0  0  0  0  0
   17.2005  -28.4663  -10.7140 H   0  0  0  0  0  0  0  0  0  0  0  0
   15.8629  -29.6220  -10.5894 H   0  0  0  0  0  0  0  0  0  0  0  0
   12.9100  -26.9068  -12.4010 H   0  0  0  0  0  0  0  0  0  0  0  0
   13.2486  -25.7343  -11.1402 H   0  0  0  0  0  0  0  0  0  0  0  0
   15.2993  -27.7945  -12.1759 H   0  0  0  0  0  0  0  0  0  0  0  0
   15.5911  -26.5933  -10.9159 H   0  0  0  0  0  0  0  0  0  0  0  0
   13.4465  -28.7842  -10.8222 H   0  0  0  0  0  0  0  0  0  0  0  0
   13.7512  -27.6234   -9.5336 H   0  0  0  0  0  0  0  0  0  0  0  0
  1  2  1  0  0  0  0
  1  3  2  0  0  0  0
  2  4  2  0  0  0  0
  3  5  1  0  0  0  0
  4 10  1  0  0  0  0
  5 10  2  0  0  0  0
  6  8  2  0  0  0  0
  6 11  1  0  0  0  0
  7  9  1  0  0  0  0
  7 11  2  0  0  0  0
  8 12  1  0  0  0  0
  9 12  2  0  0  0  0
 10 13  1  0  0  0  0
 11 16  1  0  0  0  0
 12 21  1  0  0  0  0
 13 19  2  0  0  0  0
 13 21  1  0  0  0  0
 14 20  2  0  0  0  0
 14 21  1  0  0  0  0
 14 22  1  0  0  0  0
 15 17  1  0  0  0  0
 16 18  1  0  0  0  0
 17 18  1  0  0  0  0
 19 20  1  0  0  0  0
  1 23  1  0  0  0  0
  2 24  1  0  0  0  0
  3 25  1  0  0  0  0
  4 26  1  0  0  0  0
  5 27  1  0  0  0  0
  6 28  1  0  0  0  0
  7 29  1  0  0  0  0
  8 30  1  0  0  0  0
  9 31  1  0  0  0  0
 15 32  1  0  0  0  0
 15 33  1  0  0  0  0
 15 34  1  0  0  0  0
 16 35  1  0  0  0  0
 16 36  1  0  0  0  0
 17 37  1  0  0  0  0
 17 38  1  0  0  0  0
 18 39  1  0  0  0  0
 18 40  1  0  0  0  0
M  CHG  1  22  -1
M  END
> <Hybrid2>
-6.285789489746094

> <Hybrid2>
-6.155143

$$$$
C32717122
  -OEChem-02152218513D

 29 30  0     0  0  0  0  0  0999 V2000
    6.8318  -25.6001   -9.1006 C   0  0  0  0  0  0  0  0  0  0  0  0
    5.7701  -26.5014   -9.0237 C   0  0  0  0  0  0  0  0  0  0  0  0
   12.2842  -27.3531  -12.2949 C   0  0  0  0  0  0  0  0  0  0  0  0
   11.0404  -26.6585  -12.2741 C   0  0  0  0  0  0  0  0  0  0  0  0
    8.3815  -27.4427   -9.3021 C   0  0  0  0  0  0  0  0  0  0  0  0
    7.3197  -28.3441   -9.2251 C   0  0  0  0  0  0  0  0  0  0  0  0
    8.1375  -26.0708   -9.2398 C   0  0  0  0  0  0  0  0  0  0  0  0
    6.0140  -27.8734   -9.0859 C   0  0  0  0  0  0  0  0  0  0  0  0
   13.1186  -26.9509  -11.2752 C   0  0  0  0  0  0  0  0  0  0  0  0
   10.9713  -25.7519  -11.2390 C   0  0  0  0  0  0  0  0  0  0  0  0
   14.4822  -27.4281  -10.9591 C   0  0  0  0  0  0  0  0  0  0  0  0
    7.6220  -29.8061   -9.2955 C   0  0  0  0  0  0  0  0  0  0  0  0
    9.1629  -25.2000   -9.3135 N   0  5  0  0  0  0  0  0  0  0  0  0
   10.4371  -23.3436  -10.5768 O   0  0  0  0  0  0  0  0  0  0  0  0
    8.7445  -24.6357  -11.7983 O   0  0  0  0  0  0  0  0  0  0  0  0
    8.9517  -30.0811   -9.4315 F   0  0  0  0  0  0  0  0  0  0  0  0
    7.2240  -30.4973   -8.1883 F   0  0  0  0  0  0  0  0  0  0  0  0
    7.0096  -30.4154  -10.3507 F   0  0  0  0  0  0  0  0  0  0  0  0
   12.4022  -25.7406  -10.2984 S   0  0  0  0  0  0  0  0  0  0  0  0
    9.6976  -24.5989  -10.6912 S   0  0  0  0  0  0  0  0  0  0  0  0
    4.6751  -28.9580   -8.9876 Cl  0  0  0  0  0  0  0  0  0  0  0  0
    6.6225  -24.5338   -9.0500 H   0  0  0  0  0  0  0  0  0  0  0  0
    4.7584  -26.1191   -8.9156 H   0  0  0  0  0  0  0  0  0  0  0  0
   12.5496  -28.1092  -13.0229 H   0  0  0  0  0  0  0  0  0  0  0  0
   10.2379  -26.8170  -12.9829 H   0  0  0  0  0  0  0  0  0  0  0  0
    9.3977  -27.8182   -9.4102 H   0  0  0  0  0  0  0  0  0  0  0  0
   15.2417  -26.8287  -11.4852 H   0  0  0  0  0  0  0  0  0  0  0  0
   14.6970  -27.3726   -9.8793 H   0  0  0  0  0  0  0  0  0  0  0  0
   14.6256  -28.4826  -11.2469 H   0  0  0  0  0  0  0  0  0  0  0  0
  1  2  2  0  0  0  0
  1  7  1  0  0  0  0
  2  8  1  0  0  0  0
  3  4  1  0  0  0  0
  3  9  2  0  0  0  0
  4 10  2  0  0  0  0
  5  6  1  0  0  0  0
  5  7  2  0  0  0  0
  6  8  2  0  0  0  0
  6 12  1  0  0  0  0
  7 13  1  0  0  0  0
  8 21  1  0  0  0  0
  9 11  1  0  0  0  0
  9 19  1  0  0  0  0
 10 19  1  0  0  0  0
 10 20  1  0  0  0  0
 12 16  1  0  0  0  0
 12 17  1  0  0  0  0
 12 18  1  0  0  0  0
 13 20  1  0  0  0  0
 14 20  2  0  0  0  0
 15 20  2  0  0  0  0
  1 22  1  0  0  0  0
  2 23  1  0  0  0  0
  3 24  1  0  0  0  0
  4 25  1  0  0  0  0
  5 26  1  0  0  0  0
 11 27  1  0  0  0  0
 11 28  1  0  0  0  0
 11 29  1  0  0  0  0
M  CHG  1  13  -1
M  END
> <Hybrid2>
-6.694881916046143

> <Hybrid2>
-6.694882

$$$$
C32717122
  -OEChem-02152218513D

 29 30  0     0  0  0  0  0  0999 V2000
    9.2645  -28.2142   -9.5672 C   0  0  0  0  0  0  0  0  0  0  0  0
    8.2641  -29.1837   -9.6366 C   0  0  0  0  0  0  0  0  0  0  0  0
   13.0135  -27.2758  -12.6090 C   0  0  0  0  0  0  0  0  0  0  0  0
   11.7321  -26.6852  -12.4104 C   0  0  0  0  0  0  0  0  0  0  0  0
    7.6163  -26.5574   -8.9545 C   0  0  0  0  0  0  0  0  0  0  0  0
    6.6159  -27.5269   -9.0239 C   0  0  0  0  0  0  0  0  0  0  0  0
    8.9406  -26.9010   -9.2261 C   0  0  0  0  0  0  0  0  0  0  0  0
    6.9398  -28.8401   -9.3650 C   0  0  0  0  0  0  0  0  0  0  0  0
   13.8676  -27.0244  -11.5579 C   0  0  0  0  0  0  0  0  0  0  0  0
   11.6556  -26.0050  -11.2148 C   0  0  0  0  0  0  0  0  0  0  0  0
   15.2707  -27.4597  -11.3875 C   0  0  0  0  0  0  0  0  0  0  0  0
    5.2091  -27.1193   -8.7259 C   0  0  0  0  0  0  0  0  0  0  0  0
    9.9069  -25.9646   -9.1597 N   0  5  0  0  0  0  0  0  0  0  0  0
   11.0074  -23.8146  -10.0721 O   0  0  0  0  0  0  0  0  0  0  0  0
    9.3421  -24.9560  -11.4687 O   0  0  0  0  0  0  0  0  0  0  0  0
    5.0804  -25.7975   -8.4116 F   0  0  0  0  0  0  0  0  0  0  0  0
    4.3513  -27.3258   -9.7668 F   0  0  0  0  0  0  0  0  0  0  0  0
    4.6803  -27.8025   -7.6708 F   0  0  0  0  0  0  0  0  0  0  0  0
   13.1246  -26.0799  -10.3380 S   0  0  0  0  0  0  0  0  0  0  0  0
   10.3408  -25.0710  -10.4081 S   0  0  0  0  0  0  0  0  0  0  0  0
    5.7295  -30.0667   -9.4608 Cl  0  0  0  0  0  0  0  0  0  0  0  0
   10.2917  -28.5005   -9.7826 H   0  0  0  0  0  0  0  0  0  0  0  0
    8.5325  -30.2026   -9.9035 H   0  0  0  0  0  0  0  0  0  0  0  0
   13.2905  -27.8552  -13.4805 H   0  0  0  0  0  0  0  0  0  0  0  0
   10.9092  -26.7568  -13.1098 H   0  0  0  0  0  0  0  0  0  0  0  0
    7.3551  -25.5345   -8.6880 H   0  0  0  0  0  0  0  0  0  0  0  0
   15.9676  -26.7187  -11.8093 H   0  0  0  0  0  0  0  0  0  0  0  0
   15.5308  -27.6016  -10.3257 H   0  0  0  0  0  0  0  0  0  0  0  0
   15.4643  -28.4254  -11.8827 H   0  0  0  0  0  0  0  0  0  0  0  0
  1  2  2  0  0  0  0
  1  7  1  0  0  0  0
  2  8  1  0  0  0  0
  3  4  1  0  0  0  0
  3  9  2  0  0  0  0
  4 10  2  0  0  0  0
  5  6  1  0  0  0  0
  5  7  2  0  0  0  0
  6  8  2  0  0  0  0
  6 12  1  0  0  0  0
  7 13  1  0  0  0  0
  8 21  1  0  0  0  0
  9 11  1  0  0  0  0
  9 19  1  0  0  0  0
 10 19  1  0  0  0  0
 10 20  1  0  0  0  0
 12 16  1  0  0  0  0
 12 17  1  0  0  0  0
 12 18  1  0  0  0  0
 13 20  1  0  0  0  0
 14 20  2  0  0  0  0
 15 20  2  0  0  0  0
  1 22  1  0  0  0  0
  2 23  1  0  0  0  0
  3 24  1  0  0  0  0
  4 25  1  0  0  0  0
  5 26  1  0  0  0  0
 11 27  1  0  0  0  0
 11 28  1  0  0  0  0
 11 29  1  0  0  0  0
M  CHG  1  13  -1
M  END
> <Hybrid2>
-6.694881916046143

> <Hybrid2>
-5.187860

$$$$
C00115474
  -OEChem-02152218513D

 40 42  0     0  0  0  0  0  0999 V2000
    7.6016  -29.9388  -11.0639 C   0  0  0  0  0  0  0  0  0  0  0  0
    9.2524  -25.3594  -12.0178 C   0  0  0  0  0  0  0  0  0  0  0  0
    9.8616  -26.4151   -9.9318 C   0  0  0  0  0  0  0  0  0  0  0  0
   10.5455  -25.5641  -12.4990 C   0  0  0  0  0  0  0  0  0  0  0  0
   11.1547  -26.6199  -10.4130 C   0  0  0  0  0  0  0  0  0  0  0  0
    7.3230  -28.5722  -11.0529 C   0  0  0  0  0  0  0  0  0  0  0  0
    7.5634  -30.6681   -9.8754 C   0  0  0  0  0  0  0  0  0  0  0  0
    6.9679  -28.6638   -8.6649 C   0  0  0  0  0  0  0  0  0  0  0  0
    8.9105  -25.7848  -10.7341 C   0  0  0  0  0  0  0  0  0  0  0  0
   11.4966  -26.1944  -11.6967 C   0  0  0  0  0  0  0  0  0  0  0  0
    7.0061  -27.9347   -9.8534 C   0  0  0  0  0  0  0  0  0  0  0  0
    7.2465  -30.0305   -8.6759 C   0  0  0  0  0  0  0  0  0  0  0  0
    7.5733  -25.5731  -10.2364 C   0  0  0  0  0  0  0  0  0  0  0  0
    5.5842  -25.9362   -9.4484 C   0  0  0  0  0  0  0  0  0  0  0  0
   13.5696  -25.0604  -12.5700 C   0  0  0  0  0  0  0  0  0  0  0  0
   12.8714  -27.2931  -13.4993 C   0  0  0  0  0  0  0  0  0  0  0  0
   13.8579  -27.1302  -11.2230 C   0  0  0  0  0  0  0  0  0  0  0  0
   12.9222  -26.4196  -12.2271 C   0  0  0  0  0  0  0  0  0  0  0  0
    6.9864  -24.4062  -10.0931 N   0  0  0  0  0  0  0  0  0  0  0  0
    5.7209  -24.6373   -9.5918 N   0  0  0  0  0  0  0  0  0  0  0  0
    6.7266  -26.5643   -9.8423 N   0  0  0  0  0  0  0  0  0  0  0  0
    7.2097  -30.7310   -7.5347 F   0  0  0  0  0  0  0  0  0  0  0  0
    4.1912  -26.7132   -8.8598 S   0  5  0  0  0  0  0  0  0  0  0  0
    7.8484  -30.4355  -11.9977 H   0  0  0  0  0  0  0  0  0  0  0  0
    8.5223  -24.8663  -12.6553 H   0  0  0  0  0  0  0  0  0  0  0  0
    9.6103  -26.7528   -8.9291 H   0  0  0  0  0  0  0  0  0  0  0  0
   10.8033  -25.2290  -13.5002 H   0  0  0  0  0  0  0  0  0  0  0  0
   11.8890  -27.1119   -9.7807 H   0  0  0  0  0  0  0  0  0  0  0  0
    7.3564  -28.0160  -11.9866 H   0  0  0  0  0  0  0  0  0  0  0  0
    7.7801  -31.7322   -9.8837 H   0  0  0  0  0  0  0  0  0  0  0  0
    6.7223  -28.1800   -7.7227 H   0  0  0  0  0  0  0  0  0  0  0  0
   14.5889  -25.1930  -12.9513 H   0  0  0  0  0  0  0  0  0  0  0  0
   13.0091  -24.5161  -13.3380 H   0  0  0  0  0  0  0  0  0  0  0  0
   13.6257  -24.4157  -11.6849 H   0  0  0  0  0  0  0  0  0  0  0  0
   13.8680  -27.4804  -13.9138 H   0  0  0  0  0  0  0  0  0  0  0  0
   12.4229  -28.2713  -13.2896 H   0  0  0  0  0  0  0  0  0  0  0  0
   12.2737  -26.8135  -14.2835 H   0  0  0  0  0  0  0  0  0  0  0  0
   14.8603  -27.2677  -11.6462 H   0  0  0  0  0  0  0  0  0  0  0  0
   13.9752  -26.5500  -10.3003 H   0  0  0  0  0  0  0  0  0  0  0  0
   13.4823  -28.1249  -10.9558 H   0  0  0  0  0  0  0  0  0  0  0  0
  1  6  2  0  0  0  0
  1  7  1  0  0  0  0
  2  4  2  0  0  0  0
  2  9  1  0  0  0  0
  3  5  1  0  0  0  0
  3  9  2  0  0  0  0
  4 10  1  0  0  0  0
  5 10  2  0  0  0  0
  6 11  1  0  0  0  0
  7 12  2  0  0  0  0
  8 11  2  0  0  0  0
  8 12  1  0  0  0  0
  9 13  1  0  0  0  0
 10 18  1  0  0  0  0
 11 21  1  0  0  0  0
 12 22  1  0  0  0  0
 13 19  2  0  0  0  0
 13 21  1  0  0  0  0
 14 20  2  0  0  0  0
 14 21  1  0  0  0  0
 14 23  1  0  0  0  0
 15 18  1  0  0  0  0
 16 18  1  0  0  0  0
 17 18  1  0  0  0  0
 19 20  1  0  0  0  0
  1 24  1  0  0  0  0
  2 25  1  0  0  0  0
  3 26  1  0  0  0  0
  4 27  1  0  0  0  0
  5 28  1  0  0  0  0
  6 29  1  0  0  0  0
  7 30  1  0  0  0  0
  8 31  1  0  0  0  0
 15 32  1  0  0  0  0
 15 33  1  0  0  0  0
 15 34  1  0  0  0  0
 16 35  1  0  0  0  0
 16 36  1  0  0  0  0
 16 37  1  0  0  0  0
 17 38  1  0  0  0  0
 17 39  1  0  0  0  0
 17 40  1  0  0  0  0
M  CHG  1  23  -1
M  END
> <Hybrid2>
-5.693118095397949

> <Hybrid2>
-5.693118

$$$$
C00115474
  -OEChem-02152218513D

 40 42  0     0  0  0  0  0  0999 V2000
    6.3720  -29.4528   -7.4661 C   0  0  0  0  0  0  0  0  0  0  0  0
    9.2370  -26.0533  -11.6186 C   0  0  0  0  0  0  0  0  0  0  0  0
    9.3575  -26.3756   -9.2272 C   0  0  0  0  0  0  0  0  0  0  0  0
   10.5897  -26.3749  -11.7301 C   0  0  0  0  0  0  0  0  0  0  0  0
   10.7102  -26.6973   -9.3388 C   0  0  0  0  0  0  0  0  0  0  0  0
    6.1624  -28.1600   -7.9460 C   0  0  0  0  0  0  0  0  0  0  0  0
    6.8958  -30.4333   -8.3088 C   0  0  0  0  0  0  0  0  0  0  0  0
    7.0002  -28.8281  -10.1114 C   0  0  0  0  0  0  0  0  0  0  0  0
    8.6209  -26.0536  -10.3671 C   0  0  0  0  0  0  0  0  0  0  0  0
   11.3263  -26.6969  -10.5902 C   0  0  0  0  0  0  0  0  0  0  0  0
    6.4765  -27.8477   -9.2686 C   0  0  0  0  0  0  0  0  0  0  0  0
    7.2098  -30.1209   -9.6314 C   0  0  0  0  0  0  0  0  0  0  0  0
    7.2221  -25.7209  -10.2518 C   0  0  0  0  0  0  0  0  0  0  0  0
    5.0992  -25.8534   -9.8216 C   0  0  0  0  0  0  0  0  0  0  0  0
   13.2487  -26.9762  -12.1940 C   0  0  0  0  0  0  0  0  0  0  0  0
   13.0569  -28.4825  -10.1863 C   0  0  0  0  0  0  0  0  0  0  0  0
   13.7511  -26.1102   -9.9181 C   0  0  0  0  0  0  0  0  0  0  0  0
   12.8175  -27.0510  -10.7132 C   0  0  0  0  0  0  0  0  0  0  0  0
    6.6749  -24.5815  -10.6103 N   0  0  0  0  0  0  0  0  0  0  0  0
    5.3242  -24.6658  -10.3366 N   0  0  0  0  0  0  0  0  0  0  0  0
    6.2665  -26.5514   -9.7499 N   0  0  0  0  0  0  0  0  0  0  0  0
    7.7129  -31.0625  -10.4405 F   0  0  0  0  0  0  0  0  0  0  0  0
    3.5799  -26.4297   -9.3212 S   0  5  0  0  0  0  0  0  0  0  0  0
    6.1276  -29.6963   -6.4362 H   0  0  0  0  0  0  0  0  0  0  0  0
    8.6764  -25.8042  -12.5165 H   0  0  0  0  0  0  0  0  0  0  0  0
    8.8915  -26.3807   -8.2447 H   0  0  0  0  0  0  0  0  0  0  0  0
   11.0616  -26.3717  -12.7091 H   0  0  0  0  0  0  0  0  0  0  0  0
   11.2760  -26.9469   -8.4451 H   0  0  0  0  0  0  0  0  0  0  0  0
    5.7536  -27.4056   -7.2782 H   0  0  0  0  0  0  0  0  0  0  0  0
    7.0592  -31.4399   -7.9353 H   0  0  0  0  0  0  0  0  0  0  0  0
    7.2496  -28.5987  -11.1445 H   0  0  0  0  0  0  0  0  0  0  0  0
   14.3102  -27.2248  -12.3096 H   0  0  0  0  0  0  0  0  0  0  0  0
   12.6864  -27.6730  -12.8253 H   0  0  0  0  0  0  0  0  0  0  0  0
   13.0959  -25.9688  -12.5989 H   0  0  0  0  0  0  0  0  0  0  0  0
   14.1094  -28.7788  -10.2546 H   0  0  0  0  0  0  0  0  0  0  0  0
   12.7677  -28.5694   -9.1324 H   0  0  0  0  0  0  0  0  0  0  0  0
   12.4714  -29.2150  -10.7544 H   0  0  0  0  0  0  0  0  0  0  0  0
   14.8013  -26.4028  -10.0371 H   0  0  0  0  0  0  0  0  0  0  0  0
   13.6656  -25.0724  -10.2609 H   0  0  0  0  0  0  0  0  0  0  0  0
   13.5299  -26.1349   -8.8447 H   0  0  0  0  0  0  0  0  0  0  0  0
  1  6  2  0  0  0  0
  1  7  1  0  0  0  0
  2  4  2  0  0  0  0
  2  9  1  0  0  0  0
  3  5  1  0  0  0  0
  3  9  2  0  0  0  0
  4 10  1  0  0  0  0
  5 10  2  0  0  0  0
  6 11  1  0  0  0  0
  7 12  2  0  0  0  0
  8 11  2  0  0  0  0
  8 12  1  0  0  0  0
  9 13  1  0  0  0  0
 10 18  1  0  0  0  0
 11 21  1  0  0  0  0
 12 22  1  0  0  0  0
 13 19  2  0  0  0  0
 13 21  1  0  0  0  0
 14 20  2  0  0  0  0
 14 21  1  0  0  0  0
 14 23  1  0  0  0  0
 15 18  1  0  0  0  0
 16 18  1  0  0  0  0
 17 18  1  0  0  0  0
 19 20  1  0  0  0  0
  1 24  1  0  0  0  0
  2 25  1  0  0  0  0
  3 26  1  0  0  0  0
  4 27  1  0  0  0  0
  5 28  1  0  0  0  0
  6 29  1  0  0  0  0
  7 30  1  0  0  0  0
  8 31  1  0  0  0  0
 15 32  1  0  0  0  0
 15 33  1  0  0  0  0
 15 34  1  0  0  0  0
 16 35  1  0  0  0  0
 16 36  1  0  0  0  0
 16 37  1  0  0  0  0
 17 38  1  0  0  0  0
 17 39  1  0  0  0  0
 17 40  1  0  0  0  0
M  CHG  1  23  -1
M  END
> <Hybrid2>
-5.693118095397949

> <Hybrid2>
-5.599632

$$$$
C00128845
  -OEChem-02152218513D

 24 25  0     0  0  0  0  0  0999 V2000
    6.1051  -26.0578   -9.2459 C   0  0  0  0  0  0  0  0  0  0  0  0
    7.4397  -26.0827   -9.6505 C   0  0  0  0  0  0  0  0  0  0  0  0
    5.4726  -27.2380   -8.8549 C   0  0  0  0  0  0  0  0  0  0  0  0
    7.5095  -28.4681   -9.2732 C   0  0  0  0  0  0  0  0  0  0  0  0
    8.1420  -27.2878   -9.6641 C   0  0  0  0  0  0  0  0  0  0  0  0
    6.1749  -28.4431   -8.8686 C   0  0  0  0  0  0  0  0  0  0  0  0
   13.8007  -27.3034  -12.6072 C   0  0  0  0  0  0  0  0  0  0  0  0
   11.5145  -27.2543  -12.0258 C   0  0  0  0  0  0  0  0  0  0  0  0
    9.5694  -27.3134  -10.0954 C   0  0  0  0  0  0  0  0  0  0  0  0
    5.4983  -29.7052   -8.4511 C   0  0  0  0  0  0  0  0  0  0  0  0
   13.6266  -27.3865  -11.3054 N   0  0  0  0  0  0  0  0  0  0  0  0
   12.2856  -27.3586  -10.9644 N   0  0  0  0  0  0  0  0  0  0  0  0
    4.1949  -29.5311   -8.0815 F   0  0  0  0  0  0  0  0  0  0  0  0
    5.4669  -30.6579   -9.4293 F   0  0  0  0  0  0  0  0  0  0  0  0
    6.1059  -30.2977   -7.3821 F   0  0  0  0  0  0  0  0  0  0  0  0
   15.3459  -27.3136  -13.3371 S   0  5  0  0  0  0  0  0  0  0  0  0
   12.3535  -27.1826  -13.5199 S   0  0  0  0  0  0  0  0  0  0  0  0
    9.7542  -27.1943  -11.9009 S   0  0  0  0  0  0  0  0  0  0  0  0
    5.5584  -25.1193   -9.2352 H   0  0  0  0  0  0  0  0  0  0  0  0
    7.9244  -25.1580   -9.9529 H   0  0  0  0  0  0  0  0  0  0  0  0
    4.4323  -27.2093   -8.5419 H   0  0  0  0  0  0  0  0  0  0  0  0
    8.0568  -29.4077   -9.2827 H   0  0  0  0  0  0  0  0  0  0  0  0
   10.1326  -26.4881   -9.6352 H   0  0  0  0  0  0  0  0  0  0  0  0
   10.0606  -28.2387   -9.7600 H   0  0  0  0  0  0  0  0  0  0  0  0
  1  2  1  0  0  0  0
  1  3  2  0  0  0  0
  2  5  2  0  0  0  0
  3  6  1  0  0  0  0
  4  5  1  0  0  0  0
  4  6  2  0  0  0  0
  5  9  1  0  0  0  0
  6 10  1  0  0  0  0
  7 11  2  0  0  0  0
  7 16  1  0  0  0  0
  7 17  1  0  0  0  0
  8 12  2  0  0  0  0
  8 17  1  0  0  0  0
  8 18  1  0  0  0  0
  9 18  1  0  0  0  0
 10 13  1  0  0  0  0
 10 14  1  0  0  0  0
 10 15  1  0  0  0  0
 11 12  1  0  0  0  0
  1 19  1  0  0  0  0
  2 20  1  0  0  0  0
  3 21  1  0  0  0  0
  4 22  1  0  0  0  0
  9 23  1  0  0  0  0
  9 24  1  0  0  0  0
M  CHG  1  16  -1
M  END
> <Hybrid2>
-5.696359634399414

> <Hybrid2>
-5.696360

$$$$
C00128845
  -OEChem-02152218513D

 24 25  0     0  0  0  0  0  0999 V2000
    9.0298  -26.9085  -12.9486 C   0  0  0  0  0  0  0  0  0  0  0  0
    8.2920  -26.3302  -11.9158 C   0  0  0  0  0  0  0  0  0  0  0  0
   10.4176  -27.0045  -12.8454 C   0  0  0  0  0  0  0  0  0  0  0  0
   10.3297  -25.9436  -10.6766 C   0  0  0  0  0  0  0  0  0  0  0  0
    8.9419  -25.8477  -10.7798 C   0  0  0  0  0  0  0  0  0  0  0  0
   11.0675  -26.5220  -11.7094 C   0  0  0  0  0  0  0  0  0  0  0  0
    5.0699  -29.0294   -9.3909 C   0  0  0  0  0  0  0  0  0  0  0  0
    6.6487  -27.3649   -8.8395 C   0  0  0  0  0  0  0  0  0  0  0  0
    8.1521  -25.2308   -9.6753 C   0  0  0  0  0  0  0  0  0  0  0  0
   12.5515  -26.6241  -11.5994 C   0  0  0  0  0  0  0  0  0  0  0  0
    4.8097  -27.8905   -9.9968 N   0  0  0  0  0  0  0  0  0  0  0  0
    5.7363  -26.9144   -9.6742 N   0  0  0  0  0  0  0  0  0  0  0  0
   13.1415  -27.2108  -12.6827 F   0  0  0  0  0  0  0  0  0  0  0  0
   13.1741  -25.4158  -11.4658 F   0  0  0  0  0  0  0  0  0  0  0  0
   12.9485  -27.3618  -10.5220 F   0  0  0  0  0  0  0  0  0  0  0  0
    4.1048  -30.4256   -9.5901 S   0  5  0  0  0  0  0  0  0  0  0  0
    6.4561  -29.0062   -8.3810 S   0  0  0  0  0  0  0  0  0  0  0  0
    7.9621  -26.3430   -8.2488 S   0  0  0  0  0  0  0  0  0  0  0  0
    8.5236  -27.2843  -13.8331 H   0  0  0  0  0  0  0  0  0  0  0  0
    7.2110  -26.2602  -12.0048 H   0  0  0  0  0  0  0  0  0  0  0  0
   10.9845  -27.4560  -13.6553 H   0  0  0  0  0  0  0  0  0  0  0  0
   10.8368  -25.5685   -9.7907 H   0  0  0  0  0  0  0  0  0  0  0  0
    8.6252  -24.3005   -9.3275 H   0  0  0  0  0  0  0  0  0  0  0  0
    7.1489  -24.9470  -10.0259 H   0  0  0  0  0  0  0  0  0  0  0  0
  1  2  1  0  0  0  0
  1  3  2  0  0  0  0
  2  5  2  0  0  0  0
  3  6  1  0  0  0  0
  4  5  1  0  0  0  0
  4  6  2  0  0  0  0
  5  9  1  0  0  0  0
  6 10  1  0  0  0  0
  7 11  2  0  0  0  0
  7 16  1  0  0  0  0
  7 17  1  0  0  0  0
  8 12  2  0  0  0  0
  8 17  1  0  0  0  0
  8 18  1  0  0  0  0
  9 18  1  0  0  0  0
 10 13  1  0  0  0  0
 10 14  1  0  0  0  0
 10 15  1  0  0  0  0
 11 12  1  0  0  0  0
  1 19  1  0  0  0  0
  2 20  1  0  0  0  0
  3 21  1  0  0  0  0
  4 22  1  0  0  0  0
  9 23  1  0  0  0  0
  9 24  1  0  0  0  0
M  CHG  1  16  -1
M  END
> <Hybrid2>
-5.696359634399414

> <Hybrid2>
-4.759575

$$$$
C03956962
  -OEChem-02152218513D

 44 46  0     0  0  0  0  0  0999 V2000
    9.2102  -22.4382  -11.8250 C   0  0  0  0  0  0  0  0  0  0  0  0
    9.2909  -22.6922  -10.4559 C   0  0  0  0  0  0  0  0  0  0  0  0
    8.5926  -23.3602  -12.6702 C   0  0  0  0  0  0  0  0  0  0  0  0
    8.7542  -23.8681   -9.9318 C   0  0  0  0  0  0  0  0  0  0  0  0
    8.0558  -24.5361  -12.1461 C   0  0  0  0  0  0  0  0  0  0  0  0
   12.0479  -26.7701  -10.1460 C   0  0  0  0  0  0  0  0  0  0  0  0
   11.3211  -27.4567  -12.3454 C   0  0  0  0  0  0  0  0  0  0  0  0
   10.7259  -26.7934   -9.7018 C   0  0  0  0  0  0  0  0  0  0  0  0
    9.9990  -27.4801  -11.9012 C   0  0  0  0  0  0  0  0  0  0  0  0
    8.1366  -24.7902  -10.7770 C   0  0  0  0  0  0  0  0  0  0  0  0
   12.3455  -27.1017  -11.4679 C   0  0  0  0  0  0  0  0  0  0  0  0
    9.7015  -27.1485  -10.5794 C   0  0  0  0  0  0  0  0  0  0  0  0
    6.2928  -26.0180   -9.8259 C   0  0  0  0  0  0  0  0  0  0  0  0
    7.5758  -26.0188  -10.2301 C   0  0  0  0  0  0  0  0  0  0  0  0
    6.3875  -28.3198   -9.1395 C   0  0  0  0  0  0  0  0  0  0  0  0
    5.6453  -27.2000   -9.2765 C   0  0  0  0  0  0  0  0  0  0  0  0
    7.8290  -28.3597   -9.5831 C   0  0  0  0  0  0  0  0  0  0  0  0
   13.7591  -27.0766  -11.9427 C   0  0  0  0  0  0  0  0  0  0  0  0
    5.4131  -29.3996   -7.1288 C   0  0  0  0  0  0  0  0  0  0  0  0
    4.7253  -30.1513   -9.4267 C   0  0  0  0  0  0  0  0  0  0  0  0
    5.8621  -29.6117   -8.5681 C   0  0  0  0  0  0  0  0  0  0  0  0
    8.3660  -27.1725  -10.1310 N   0  0  0  0  0  0  0  0  0  0  0  0
    4.4409  -26.9529   -8.9932 O   0  5  0  0  0  0  0  0  0  0  0  0
    8.4726  -29.4040   -9.4566 O   0  0  0  0  0  0  0  0  0  0  0  0
    9.6270  -21.5220  -12.2328 H   0  0  0  0  0  0  0  0  0  0  0  0
    9.7707  -21.9738   -9.7974 H   0  0  0  0  0  0  0  0  0  0  0  0
    8.5286  -23.1620  -13.7360 H   0  0  0  0  0  0  0  0  0  0  0  0
    8.8249  -24.0521   -8.8624 H   0  0  0  0  0  0  0  0  0  0  0  0
    7.5775  -25.2451  -12.8178 H   0  0  0  0  0  0  0  0  0  0  0  0
   12.8395  -26.4901   -9.4560 H   0  0  0  0  0  0  0  0  0  0  0  0
   11.5439  -27.7158  -13.3771 H   0  0  0  0  0  0  0  0  0  0  0  0
   10.5055  -26.5335   -8.6695 H   0  0  0  0  0  0  0  0  0  0  0  0
    9.2083  -27.7573  -12.5939 H   0  0  0  0  0  0  0  0  0  0  0  0
    5.7154  -25.0965   -9.9192 H   0  0  0  0  0  0  0  0  0  0  0  0
   14.2299  -28.0558  -11.7925 H   0  0  0  0  0  0  0  0  0  0  0  0
   13.8168  -26.8227  -13.0091 H   0  0  0  0  0  0  0  0  0  0  0  0
   14.3469  -26.3216  -11.4043 H   0  0  0  0  0  0  0  0  0  0  0  0
    4.5889  -28.6803   -7.0632 H   0  0  0  0  0  0  0  0  0  0  0  0
    6.2352  -29.0260   -6.5083 H   0  0  0  0  0  0  0  0  0  0  0  0
    5.0704  -30.3444   -6.6934 H   0  0  0  0  0  0  0  0  0  0  0  0
    3.8774  -29.4575   -9.4429 H   0  0  0  0  0  0  0  0  0  0  0  0
    4.3618  -31.1176   -9.0589 H   0  0  0  0  0  0  0  0  0  0  0  0
    5.0618  -30.2900  -10.4598 H   0  0  0  0  0  0  0  0  0  0  0  0
    6.6826  -30.3345   -8.5817 H   0  0  0  0  0  0  0  0  0  0  0  0
  1  2  1  0  0  0  0
  1  3  2  0  0  0  0
  2  4  2  0  0  0  0
  3  5  1  0  0  0  0
  4 10  1  0  0  0  0
  5 10  2  0  0  0  0
  6  8  2  0  0  0  0
  6 11  1  0  0  0  0
  7  9  1  0  0  0  0
  7 11  2  0  0  0  0
  8 12  1  0  0  0  0
  9 12  2  0  0  0  0
 10 14  1  0  0  0  0
 11 18  1  0  0  0  0
 12 22  1  0  0  0  0
 13 14  2  0  0  0  0
 13 16  1  0  0  0  0
 14 22  1  0  0  0  0
 15 16  2  0  0  0  0
 15 17  1  0  0  0  0
 15 21  1  0  0  0  0
 16 23  1  0  0  0  0
 17 22  1  0  0  0  0
 17 24  2  0  0  0  0
 19 21  1  0  0  0  0
 20 21  1  0  0  0  0
  1 25  1  0  0  0  0
  2 26  1  0  0  0  0
  3 27  1  0  0  0  0
  4 28  1  0  0  0  0
  5 29  1  0  0  0  0
  6 30  1  0  0  0  0
  7 31  1  0  0  0  0
  8 32  1  0  0  0  0
  9 33  1  0  0  0  0
 13 34  1  0  0  0  0
 18 35  1  0  0  0  0
 18 36  1  0  0  0  0
 18 37  1  0  0  0  0
 19 38  1  0  0  0  0
 19 39  1  0  0  0  0
 19 40  1  0  0  0  0
 20 41  1  0  0  0  0
 20 42  1  0  0  0  0
 20 43  1  0  0  0  0
 21 44  1  0  0  0  0
M  CHG  1  23  -1
M  END
> <Hybrid2>
-6.7216410636901855

> <Hybrid2>
-6.721641

$$$$
C03956962
  -OEChem-02152218513D

 44 46  0     0  0  0  0  0  0999 V2000
    8.4097  -22.6024  -10.2434 C   0  0  0  0  0  0  0  0  0  0  0  0
    8.4645  -23.1885   -8.9789 C   0  0  0  0  0  0  0  0  0  0  0  0
    7.8880  -23.3173  -11.3215 C   0  0  0  0  0  0  0  0  0  0  0  0
    7.9978  -24.4897   -8.7924 C   0  0  0  0  0  0  0  0  0  0  0  0
    7.4212  -24.6185  -11.1351 C   0  0  0  0  0  0  0  0  0  0  0  0
   11.4983  -27.0333   -9.5622 C   0  0  0  0  0  0  0  0  0  0  0  0
   10.8942  -27.1857  -11.8965 C   0  0  0  0  0  0  0  0  0  0  0  0
   10.1678  -27.2501   -9.2037 C   0  0  0  0  0  0  0  0  0  0  0  0
    9.5637  -27.4025  -11.5380 C   0  0  0  0  0  0  0  0  0  0  0  0
    7.4761  -25.2047   -9.8706 C   0  0  0  0  0  0  0  0  0  0  0  0
   11.8615  -27.0010  -10.9086 C   0  0  0  0  0  0  0  0  0  0  0  0
    9.2006  -27.4347  -10.1916 C   0  0  0  0  0  0  0  0  0  0  0  0
    5.6965  -26.7449   -9.3487 C   0  0  0  0  0  0  0  0  0  0  0  0
    6.9886  -26.5640   -9.6764 C   0  0  0  0  0  0  0  0  0  0  0  0
    5.9356  -29.1350   -9.2554 C   0  0  0  0  0  0  0  0  0  0  0  0
    5.1190  -28.0652   -9.1447 C   0  0  0  0  0  0  0  0  0  0  0  0
    7.3897  -28.9721   -9.6232 C   0  0  0  0  0  0  0  0  0  0  0  0
   13.2840  -26.7692  -11.2918 C   0  0  0  0  0  0  0  0  0  0  0  0
    4.9778  -30.7461   -7.6290 C   0  0  0  0  0  0  0  0  0  0  0  0
    4.4205  -30.9339  -10.0728 C   0  0  0  0  0  0  0  0  0  0  0  0
    5.4870  -30.5593   -9.0516 C   0  0  0  0  0  0  0  0  0  0  0  0
    7.8566  -27.6540   -9.8299 N   0  0  0  0  0  0  0  0  0  0  0  0
    3.8914  -27.9729   -8.8684 O   0  5  0  0  0  0  0  0  0  0  0  0
    8.1028  -29.9724   -9.7301 O   0  0  0  0  0  0  0  0  0  0  0  0
    8.7719  -21.5888  -10.3883 H   0  0  0  0  0  0  0  0  0  0  0  0
    8.8697  -22.6315   -8.1390 H   0  0  0  0  0  0  0  0  0  0  0  0
    7.8441  -22.8607  -12.3059 H   0  0  0  0  0  0  0  0  0  0  0  0
    8.0473  -24.9332   -7.8008 H   0  0  0  0  0  0  0  0  0  0  0  0
    7.0174  -25.1630  -11.9854 H   0  0  0  0  0  0  0  0  0  0  0  0
   12.2450  -26.8882   -8.7859 H   0  0  0  0  0  0  0  0  0  0  0  0
   11.1682  -27.1614  -12.9480 H   0  0  0  0  0  0  0  0  0  0  0  0
    9.8962  -27.2736   -8.1514 H   0  0  0  0  0  0  0  0  0  0  0  0
    8.8178  -27.5441  -12.3161 H   0  0  0  0  0  0  0  0  0  0  0  0
    5.0572  -25.8674   -9.2371 H   0  0  0  0  0  0  0  0  0  0  0  0
   13.8195  -27.7234  -11.3680 H   0  0  0  0  0  0  0  0  0  0  0  0
   13.3574  -26.2510  -12.2567 H   0  0  0  0  0  0  0  0  0  0  0  0
   13.7980  -26.1398  -10.5535 H   0  0  0  0  0  0  0  0  0  0  0  0
    4.1021  -30.1192   -7.4263 H   0  0  0  0  0  0  0  0  0  0  0  0
    5.7503  -30.4912   -6.8949 H   0  0  0  0  0  0  0  0  0  0  0  0
    4.6906  -31.7897   -7.4608 H   0  0  0  0  0  0  0  0  0  0  0  0
    3.5255  -30.3125   -9.9569 H   0  0  0  0  0  0  0  0  0  0  0  0
    4.1164  -31.9825   -9.9765 H   0  0  0  0  0  0  0  0  0  0  0  0
    4.7992  -30.7859  -11.0899 H   0  0  0  0  0  0  0  0  0  0  0  0
    6.3578  -31.2030   -9.2049 H   0  0  0  0  0  0  0  0  0  0  0  0
  1  2  1  0  0  0  0
  1  3  2  0  0  0  0
  2  4  2  0  0  0  0
  3  5  1  0  0  0  0
  4 10  1  0  0  0  0
  5 10  2  0  0  0  0
  6  8  2  0  0  0  0
  6 11  1  0  0  0  0
  7  9  1  0  0  0  0
  7 11  2  0  0  0  0
  8 12  1  0  0  0  0
  9 12  2  0  0  0  0
 10 14  1  0  0  0  0
 11 18  1  0  0  0  0
 12 22  1  0  0  0  0
 13 14  2  0  0  0  0
 13 16  1  0  0  0  0
 14 22  1  0  0  0  0
 15 16  2  0  0  0  0
 15 17  1  0  0  0  0
 15 21  1  0  0  0  0
 16 23  1  0  0  0  0
 17 22  1  0  0  0  0
 17 24  2  0  0  0  0
 19 21  1  0  0  0  0
 20 21  1  0  0  0  0
  1 25  1  0  0  0  0
  2 26  1  0  0  0  0
  3 27  1  0  0  0  0
  4 28  1  0  0  0  0
  5 29  1  0  0  0  0
  6 30  1  0  0  0  0
  7 31  1  0  0  0  0
  8 32  1  0  0  0  0
  9 33  1  0  0  0  0
 13 34  1  0  0  0  0
 18 35  1  0  0  0  0
 18 36  1  0  0  0  0
 18 37  1  0  0  0  0
 19 38  1  0  0  0  0
 19 39  1  0  0  0  0
 19 40  1  0  0  0  0
 20 41  1  0  0  0  0
 20 42  1  0  0  0  0
 20 43  1  0  0  0  0
 21 44  1  0  0  0  0
M  CHG  1  23  -1
M  END
> <Hybrid2>
-6.7216410636901855

> <Hybrid2>
-6.600853

$$$$
C00088284
  -OEChem-02152218513D

 44 46  0     0  0  0  0  0  0999 V2000
   12.7929  -26.8080  -11.9847 C   0  0  0  0  0  0  0  0  0  0  0  0
    9.2562  -22.5840  -10.3046 C   0  0  0  0  0  0  0  0  0  0  0  0
   11.6654  -26.9561  -12.7923 C   0  0  0  0  0  0  0  0  0  0  0  0
   12.6843  -26.9540  -10.6017 C   0  0  0  0  0  0  0  0  0  0  0  0
    9.0357  -23.4103  -11.4065 C   0  0  0  0  0  0  0  0  0  0  0  0
    9.1356  -23.0968   -9.0130 C   0  0  0  0  0  0  0  0  0  0  0  0
   10.4292  -27.2502  -12.2170 C   0  0  0  0  0  0  0  0  0  0  0  0
   11.4481  -27.2481  -10.0264 C   0  0  0  0  0  0  0  0  0  0  0  0
    8.6945  -24.7494  -11.2168 C   0  0  0  0  0  0  0  0  0  0  0  0
    8.7944  -24.4359   -8.8234 C   0  0  0  0  0  0  0  0  0  0  0  0
   10.3205  -27.3962  -10.8340 C   0  0  0  0  0  0  0  0  0  0  0  0
    8.5739  -25.2623   -9.9253 C   0  0  0  0  0  0  0  0  0  0  0  0
    9.0039  -27.7094  -10.2206 C   0  0  0  0  0  0  0  0  0  0  0  0
    8.6355  -29.0069  -10.0478 C   0  0  0  0  0  0  0  0  0  0  0  0
    6.6074  -28.3131   -8.8726 C   0  0  0  0  0  0  0  0  0  0  0  0
    7.3387  -29.3273   -9.3865 C   0  0  0  0  0  0  0  0  0  0  0  0
    7.0398  -26.8856   -9.0075 C   0  0  0  0  0  0  0  0  0  0  0  0
    9.5318  -30.1732  -10.4731 C   0  0  0  0  0  0  0  0  0  0  0  0
    4.2757  -29.1321   -9.1044 C   0  0  0  0  0  0  0  0  0  0  0  0
    5.4827  -29.3572   -6.9110 C   0  0  0  0  0  0  0  0  0  0  0  0
    5.2902  -28.5063   -8.1587 C   0  0  0  0  0  0  0  0  0  0  0  0
    8.2210  -26.6478   -9.7293 N   0  0  0  0  0  0  0  0  0  0  0  0
    7.0815  -30.5647   -9.3911 O   0  5  0  0  0  0  0  0  0  0  0  0
    6.3165  -26.0067   -8.5320 O   0  0  0  0  0  0  0  0  0  0  0  0
   13.7557  -26.5803  -12.4327 H   0  0  0  0  0  0  0  0  0  0  0  0
    9.5226  -21.5414  -10.4519 H   0  0  0  0  0  0  0  0  0  0  0  0
   11.7499  -26.8436  -13.8693 H   0  0  0  0  0  0  0  0  0  0  0  0
   13.5624  -26.8398   -9.9729 H   0  0  0  0  0  0  0  0  0  0  0  0
    9.1303  -23.0116  -12.4122 H   0  0  0  0  0  0  0  0  0  0  0  0
    9.3083  -22.4533   -8.1552 H   0  0  0  0  0  0  0  0  0  0  0  0
    9.5592  -27.3627  -12.8597 H   0  0  0  0  0  0  0  0  0  0  0  0
   11.3796  -27.3589   -8.9468 H   0  0  0  0  0  0  0  0  0  0  0  0
    8.5251  -25.3840  -12.0832 H   0  0  0  0  0  0  0  0  0  0  0  0
    8.7034  -24.8246   -7.8121 H   0  0  0  0  0  0  0  0  0  0  0  0
   10.1667  -30.4296   -9.6394 H   0  0  0  0  0  0  0  0  0  0  0  0
   10.1186  -29.8541  -11.3206 H   0  0  0  0  0  0  0  0  0  0  0  0
    8.8972  -31.0027  -10.7440 H   0  0  0  0  0  0  0  0  0  0  0  0
    4.5896  -30.1287   -9.4351 H   0  0  0  0  0  0  0  0  0  0  0  0
    4.1296  -28.5128   -9.9964 H   0  0  0  0  0  0  0  0  0  0  0  0
    3.3051  -29.2331   -8.6069 H   0  0  0  0  0  0  0  0  0  0  0  0
    5.8395  -30.3612   -7.1664 H   0  0  0  0  0  0  0  0  0  0  0  0
    4.5506  -29.4657   -6.3446 H   0  0  0  0  0  0  0  0  0  0  0  0
    6.2258  -28.8978   -6.2504 H   0  0  0  0  0  0  0  0  0  0  0  0
    4.9352  -27.5178   -7.8572 H   0  0  0  0  0  0  0  0  0  0  0  0
  1  3  1  0  0  0  0
  1  4  2  0  0  0  0
  2  5  1  0  0  0  0
  2  6  2  0  0  0  0
  3  7  2  0  0  0  0
  4  8  1  0  0  0  0
  5  9  2  0  0  0  0
  6 10  1  0  0  0  0
  7 11  1  0  0  0  0
  8 11  2  0  0  0  0
  9 12  1  0  0  0  0
 10 12  2  0  0  0  0
 11 13  1  0  0  0  0
 12 22  1  0  0  0  0
 13 14  2  0  0  0  0
 13 22  1  0  0  0  0
 14 16  1  0  0  0  0
 14 18  1  0  0  0  0
 15 16  2  0  0  0  0
 15 17  1  0  0  0  0
 15 21  1  0  0  0  0
 16 23  1  0  0  0  0
 17 22  1  0  0  0  0
 17 24  2  0  0  0  0
 19 21  1  0  0  0  0
 20 21  1  0  0  0  0
  1 25  1  0  0  0  0
  2 26  1  0  0  0  0
  3 27  1  0  0  0  0
  4 28  1  0  0  0  0
  5 29  1  0  0  0  0
  6 30  1  0  0  0  0
  7 31  1  0  0  0  0
  8 32  1  0  0  0  0
  9 33  1  0  0  0  0
 10 34  1  0  0  0  0
 18 35  1  0  0  0  0
 18 36  1  0  0  0  0
 18 37  1  0  0  0  0
 19 38  1  0  0  0  0
 19 39  1  0  0  0  0
 19 40  1  0  0  0  0
 20 41  1  0  0  0  0
 20 42  1  0  0  0  0
 20 43  1  0  0  0  0
 21 44  1  0  0  0  0
M  CHG  1  23  -1
M  END
> <Hybrid2>
-5.888615608215332

> <Hybrid2>
-5.888616

$$$$
C00088284
  -OEChem-02152218513D

 44 46  0     0  0  0  0  0  0999 V2000
   13.4277  -26.7273  -11.6657 C   0  0  0  0  0  0  0  0  0  0  0  0
   10.0032  -22.2450  -10.5004 C   0  0  0  0  0  0  0  0  0  0  0  0
   13.1846  -27.4231  -10.4815 C   0  0  0  0  0  0  0  0  0  0  0  0
   12.3607  -26.2315  -12.4149 C   0  0  0  0  0  0  0  0  0  0  0  0
   10.7298  -23.1270   -9.7006 C   0  0  0  0  0  0  0  0  0  0  0  0
    8.8300  -22.6723  -11.1222 C   0  0  0  0  0  0  0  0  0  0  0  0
   11.8745  -27.6232  -10.0466 C   0  0  0  0  0  0  0  0  0  0  0  0
   11.0506  -26.4316  -11.9800 C   0  0  0  0  0  0  0  0  0  0  0  0
   10.2831  -24.4364   -9.5226 C   0  0  0  0  0  0  0  0  0  0  0  0
    8.3833  -23.9816  -10.9442 C   0  0  0  0  0  0  0  0  0  0  0  0
   10.8074  -27.1275  -10.7958 C   0  0  0  0  0  0  0  0  0  0  0  0
    9.1099  -24.8637  -10.1444 C   0  0  0  0  0  0  0  0  0  0  0  0
    9.4116  -27.3404  -10.3330 C   0  0  0  0  0  0  0  0  0  0  0  0
    8.9426  -28.6070  -10.1753 C   0  0  0  0  0  0  0  0  0  0  0  0
    6.8422  -27.7548   -9.2600 C   0  0  0  0  0  0  0  0  0  0  0  0
    7.5605  -28.8269   -9.6625 C   0  0  0  0  0  0  0  0  0  0  0  0
    7.3787  -26.3613   -9.3754 C   0  0  0  0  0  0  0  0  0  0  0  0
    9.8044  -29.8385  -10.4673 C   0  0  0  0  0  0  0  0  0  0  0  0
    4.5044  -28.4348   -9.7433 C   0  0  0  0  0  0  0  0  0  0  0  0
    5.4345  -28.6688   -7.4199 C   0  0  0  0  0  0  0  0  0  0  0  0
    5.4420  -27.8450   -8.7001 C   0  0  0  0  0  0  0  0  0  0  0  0
    8.6479  -26.2184   -9.9600 N   0  0  0  0  0  0  0  0  0  0  0  0
    7.2259  -30.0457   -9.6694 O   0  5  0  0  0  0  0  0  0  0  0  0
    6.6641  -25.4257   -9.0071 O   0  0  0  0  0  0  0  0  0  0  0  0
   14.4478  -26.5703  -12.0037 H   0  0  0  0  0  0  0  0  0  0  0  0
   10.3503  -21.2251  -10.6386 H   0  0  0  0  0  0  0  0  0  0  0  0
   14.0154  -27.8082   -9.8973 H   0  0  0  0  0  0  0  0  0  0  0  0
   12.5498  -25.6886  -13.3364 H   0  0  0  0  0  0  0  0  0  0  0  0
   11.6428  -22.7944   -9.2156 H   0  0  0  0  0  0  0  0  0  0  0  0
    8.2639  -21.9849  -11.7442 H   0  0  0  0  0  0  0  0  0  0  0  0
   11.7009  -28.1677   -9.1214 H   0  0  0  0  0  0  0  0  0  0  0  0
   10.2294  -26.0390  -12.5751 H   0  0  0  0  0  0  0  0  0  0  0  0
   10.8575  -25.1149   -8.8968 H   0  0  0  0  0  0  0  0  0  0  0  0
    7.4675  -24.3035  -11.4338 H   0  0  0  0  0  0  0  0  0  0  0  0
   10.3214  -30.1088   -9.5599 H   0  0  0  0  0  0  0  0  0  0  0  0
   10.5040  -29.5815  -11.2476 H   0  0  0  0  0  0  0  0  0  0  0  0
    9.1526  -30.6349  -10.7917 H   0  0  0  0  0  0  0  0  0  0  0  0
    4.7890  -29.4582  -10.0129 H   0  0  0  0  0  0  0  0  0  0  0  0
    4.5020  -27.8344  -10.6599 H   0  0  0  0  0  0  0  0  0  0  0  0
    3.4786  -28.4609   -9.3601 H   0  0  0  0  0  0  0  0  0  0  0  0
    5.7525  -29.7001   -7.6095 H   0  0  0  0  0  0  0  0  0  0  0  0
    4.4386  -28.7028   -6.9636 H   0  0  0  0  0  0  0  0  0  0  0  0
    6.1251  -28.2368   -6.6877 H   0  0  0  0  0  0  0  0  0  0  0  0
    5.1195  -26.8280   -8.4642 H   0  0  0  0  0  0  0  0  0  0  0  0
  1  3  1  0  0  0  0
  1  4  2  0  0  0  0
  2  5  1  0  0  0  0
  2  6  2  0  0  0  0
  3  7  2  0  0  0  0
  4  8  1  0  0  0  0
  5  9  2  0  0  0  0
  6 10  1  0  0  0  0
  7 11  1  0  0  0  0
  8 11  2  0  0  0  0
  9 12  1  0  0  0  0
 10 12  2  0  0  0  0
 11 13  1  0  0  0  0
 12 22  1  0  0  0  0
 13 14  2  0  0  0  0
 13 22  1  0  0  0  0
 14 16  1  0  0  0  0
 14 18  1  0  0  0  0
 15 16  2  0  0  0  0
 15 17  1  0  0  0  0
 15 21  1  0  0  0  0
 16 23  1  0  0  0  0
 17 22  1  0  0  0  0
 17 24  2  0  0  0  0
 19 21  1  0  0  0  0
 20 21  1  0  0  0  0
  1 25  1  0  0  0  0
  2 26  1  0  0  0  0
  3 27  1  0  0  0  0
  4 28  1  0  0  0  0
  5 29  1  0  0  0  0
  6 30  1  0  0  0  0
  7 31  1  0  0  0  0
  8 32  1  0  0  0  0
  9 33  1  0  0  0  0
 10 34  1  0  0  0  0
 18 35  1  0  0  0  0
 18 36  1  0  0  0  0
 18 37  1  0  0  0  0
 19 38  1  0  0  0  0
 19 39  1  0  0  0  0
 19 40  1  0  0  0  0
 20 41  1  0  0  0  0
 20 42  1  0  0  0  0
 20 43  1  0  0  0  0
 21 44  1  0  0  0  0
M  CHG  1  23  -1
M  END
> <Hybrid2>
-5.888615608215332

> <Hybrid2>
-5.497039

$$$$
C33698750
  -OEChem-02152218513D

 29 30  0     0  0  0  0  0  0999 V2000
   10.8264  -27.0079  -10.2443 C   0  0  0  0  0  0  0  0  0  0  0  0
   11.8103  -24.9899  -11.1370 C   0  0  0  0  0  0  0  0  0  0  0  0
    6.5753  -26.0088   -8.8289 C   0  0  0  0  0  0  0  0  0  0  0  0
   12.0136  -27.6966  -10.4927 C   0  0  0  0  0  0  0  0  0  0  0  0
   12.9976  -25.6786  -11.3853 C   0  0  0  0  0  0  0  0  0  0  0  0
    5.9684  -26.9062   -7.9504 C   0  0  0  0  0  0  0  0  0  0  0  0
    7.5867  -27.8542  -10.0156 C   0  0  0  0  0  0  0  0  0  0  0  0
    6.9799  -28.7518   -9.1371 C   0  0  0  0  0  0  0  0  0  0  0  0
   10.7247  -25.6545  -10.5665 C   0  0  0  0  0  0  0  0  0  0  0  0
    7.3844  -26.4828   -9.8616 C   0  0  0  0  0  0  0  0  0  0  0  0
   13.0992  -27.0320  -11.0632 C   0  0  0  0  0  0  0  0  0  0  0  0
    6.1707  -28.2777   -8.1045 C   0  0  0  0  0  0  0  0  0  0  0  0
    7.2214  -30.2135   -9.3357 C   0  0  0  0  0  0  0  0  0  0  0  0
    9.5713  -24.9850  -10.3257 N   0  5  0  0  0  0  0  0  0  0  0  0
    8.2393  -26.0928  -12.2366 O   0  0  0  0  0  0  0  0  0  0  0  0
    7.2104  -24.2192  -11.0292 O   0  0  0  0  0  0  0  0  0  0  0  0
    8.0373  -30.4914  -10.3937 F   0  0  0  0  0  0  0  0  0  0  0  0
    7.8074  -30.8182   -8.2619 F   0  0  0  0  0  0  0  0  0  0  0  0
    6.0696  -30.9060   -9.5662 F   0  0  0  0  0  0  0  0  0  0  0  0
    8.1438  -25.3589  -10.9610 S   0  0  0  0  0  0  0  0  0  0  0  0
   14.5647  -27.8814  -11.3692 Cl  0  0  0  0  0  0  0  0  0  0  0  0
    5.4036  -29.3582   -6.9985 Cl  0  0  0  0  0  0  0  0  0  0  0  0
    9.9905  -27.5428   -9.7985 H   0  0  0  0  0  0  0  0  0  0  0  0
   11.7509  -23.9348  -11.3949 H   0  0  0  0  0  0  0  0  0  0  0  0
    6.4111  -24.9424   -8.7001 H   0  0  0  0  0  0  0  0  0  0  0  0
   12.0793  -28.7509  -10.2358 H   0  0  0  0  0  0  0  0  0  0  0  0
   13.8362  -25.1484  -11.8295 H   0  0  0  0  0  0  0  0  0  0  0  0
    5.3409  -26.5207   -7.1509 H   0  0  0  0  0  0  0  0  0  0  0  0
    8.2174  -28.2237  -10.8210 H   0  0  0  0  0  0  0  0  0  0  0  0
  1  4  1  0  0  0  0
  1  9  2  0  0  0  0
  2  5  2  0  0  0  0
  2  9  1  0  0  0  0
  3  6  2  0  0  0  0
  3 10  1  0  0  0  0
  4 11  2  0  0  0  0
  5 11  1  0  0  0  0
  6 12  1  0  0  0  0
  7  8  1  0  0  0  0
  7 10  2  0  0  0  0
  8 12  2  0  0  0  0
  8 13  1  0  0  0  0
  9 14  1  0  0  0  0
 10 20  1  0  0  0  0
 11 21  1  0  0  0  0
 12 22  1  0  0  0  0
 13 17  1  0  0  0  0
 13 18  1  0  0  0  0
 13 19  1  0  0  0  0
 14 20  1  0  0  0  0
 15 20  2  0  0  0  0
 16 20  2  0  0  0  0
  1 23  1  0  0  0  0
  2 24  1  0  0  0  0
  3 25  1  0  0  0  0
  4 26  1  0  0  0  0
  5 27  1  0  0  0  0
  6 28  1  0  0  0  0
  7 29  1  0  0  0  0
M  CHG  1  14  -1
M  END
> <Hybrid2>
-5.816493988037109

> <Hybrid2>
-5.816494

$$$$
C33698750
  -OEChem-02152218513D

 29 30  0     0  0  0  0  0  0999 V2000
   12.1232  -26.0688  -11.9907 C   0  0  0  0  0  0  0  0  0  0  0  0
   11.9311  -26.3225   -9.5958 C   0  0  0  0  0  0  0  0  0  0  0  0
    7.0582  -25.8559   -9.7183 C   0  0  0  0  0  0  0  0  0  0  0  0
   13.3000  -26.8176  -11.9757 C   0  0  0  0  0  0  0  0  0  0  0  0
   13.1079  -27.0713   -9.5807 C   0  0  0  0  0  0  0  0  0  0  0  0
    6.2801  -26.6348   -8.8619 C   0  0  0  0  0  0  0  0  0  0  0  0
    8.1510  -27.8487  -10.5378 C   0  0  0  0  0  0  0  0  0  0  0  0
    7.3729  -28.6276   -9.6813 C   0  0  0  0  0  0  0  0  0  0  0  0
   11.4388  -25.8213  -10.8008 C   0  0  0  0  0  0  0  0  0  0  0  0
    7.9936  -26.4629  -10.5564 C   0  0  0  0  0  0  0  0  0  0  0  0
   13.7923  -27.3188  -10.7707 C   0  0  0  0  0  0  0  0  0  0  0  0
    6.4375  -28.0206   -8.8433 C   0  0  0  0  0  0  0  0  0  0  0  0
    7.5715  -30.1091   -9.6913 C   0  0  0  0  0  0  0  0  0  0  0  0
   10.2956  -25.0935  -10.8148 N   0  5  0  0  0  0  0  0  0  0  0  0
    9.2236  -26.3559  -12.7923 O   0  0  0  0  0  0  0  0  0  0  0  0
    8.1118  -24.3324  -11.9580 O   0  0  0  0  0  0  0  0  0  0  0  0
    8.5270  -30.5241  -10.5728 F   0  0  0  0  0  0  0  0  0  0  0  0
    7.9544  -30.6141   -8.4829 F   0  0  0  0  0  0  0  0  0  0  0  0
    6.4372  -30.7853  -10.0313 F   0  0  0  0  0  0  0  0  0  0  0  0
    8.9673  -25.4874  -11.6282 S   0  0  0  0  0  0  0  0  0  0  0  0
   15.2440  -28.2434  -10.7517 Cl  0  0  0  0  0  0  0  0  0  0  0  0
    5.4571  -28.9519   -7.7706 Cl  0  0  0  0  0  0  0  0  0  0  0  0
   11.7544  -25.6864  -12.9401 H   0  0  0  0  0  0  0  0  0  0  0  0
   11.4117  -26.1406   -8.6574 H   0  0  0  0  0  0  0  0  0  0  0  0
    6.9276  -24.7772   -9.7249 H   0  0  0  0  0  0  0  0  0  0  0  0
   13.8226  -27.0036  -12.9105 H   0  0  0  0  0  0  0  0  0  0  0  0
   13.4799  -27.4567   -8.6348 H   0  0  0  0  0  0  0  0  0  0  0  0
    5.5557  -26.1464   -8.2150 H   0  0  0  0  0  0  0  0  0  0  0  0
    8.8801  -28.3219  -11.1915 H   0  0  0  0  0  0  0  0  0  0  0  0
  1  4  1  0  0  0  0
  1  9  2  0  0  0  0
  2  5  2  0  0  0  0
  2  9  1  0  0  0  0
  3  6  2  0  0  0  0
  3 10  1  0  0  0  0
  4 11  2  0  0  0  0
  5 11  1  0  0  0  0
  6 12  1  0  0  0  0
  7  8  1  0  0  0  0
  7 10  2  0  0  0  0
  8 12  2  0  0  0  0
  8 13  1  0  0  0  0
  9 14  1  0  0  0  0
 10 20  1  0  0  0  0
 11 21  1  0  0  0  0
 12 22  1  0  0  0  0
 13 17  1  0  0  0  0
 13 18  1  0  0  0  0
 13 19  1  0  0  0  0
 14 20  1  0  0  0  0
 15 20  2  0  0  0  0
 16 20  2  0  0  0  0
  1 23  1  0  0  0  0
  2 24  1  0  0  0  0
  3 25  1  0  0  0  0
  4 26  1  0  0  0  0
  5 27  1  0  0  0  0
  6 28  1  0  0  0  0
  7 29  1  0  0  0  0
M  CHG  1  14  -1
M  END
> <Hybrid2>
-5.816493988037109

> <Hybrid2>
-5.411095

$$$$
C36827292
  -OEChem-02152218513D

 39 41  0     1  0  0  0  0  0999 V2000
    6.7081  -26.6534   -9.1977 C   0  0  0  0  0  0  0  0  0  0  0  0
    6.4698  -28.0264   -9.1379 C   0  0  0  0  0  0  0  0  0  0  0  0
    8.6702  -28.4477  -10.0424 C   0  0  0  0  0  0  0  0  0  0  0  0
    7.9274  -26.1775   -9.6800 C   0  0  0  0  0  0  0  0  0  0  0  0
    8.9084  -27.0746  -10.1023 C   0  0  0  0  0  0  0  0  0  0  0  0
    7.4508  -28.9236   -9.5602 C   0  0  0  0  0  0  0  0  0  0  0  0
    8.1527  -24.7209   -9.7339 C   0  0  0  0  0  0  0  0  0  0  0  0
   11.4071  -26.7967  -14.7509 C   0  0  0  0  0  0  0  0  0  0  0  0
   10.1523  -27.5565  -14.3381 C   0  0  0  0  0  0  0  0  0  0  0  0
   12.3372  -25.6622   -9.9543 C   0  0  0  0  0  0  0  0  0  0  0  0
   12.4571  -26.7992  -13.6441 C   0  0  0  0  0  0  0  0  0  0  0  0
   12.9398  -26.2312  -11.2321 C   0  0  0  0  0  0  0  0  0  0  0  0
    9.5932  -27.0623  -13.0037 C   0  0  0  0  0  0  0  0  0  0  0  0
   11.1292  -26.4748   -9.5049 C   0  0  0  0  0  0  0  0  0  0  0  0
   11.8717  -26.2756  -12.3272 C   0  0  2  0  0  0  0  0  0  0  0  0
   10.6540  -27.1258  -11.8849 C   0  0  1  0  0  0  0  0  0  0  0  0
   10.1443  -26.6147  -10.5920 N   0  0  1  0  0  0  0  0  0  0  0  0
    7.2153  -23.9366   -9.3326 O   0  5  0  0  0  0  0  0  0  0  0  0
    9.2784  -24.2870  -10.1806 O   0  0  0  0  0  0  0  0  0  0  0  0
    7.1269  -30.7839   -9.4797 Br  0  0  0  0  0  0  0  0  0  0  0  0
    5.9357  -25.9639   -8.8663 H   0  0  0  0  0  0  0  0  0  0  0  0
    5.5147  -28.3814   -8.7599 H   0  0  0  0  0  0  0  0  0  0  0  0
    9.4373  -29.1447  -10.3734 H   0  0  0  0  0  0  0  0  0  0  0  0
   11.8267  -27.2414  -15.6600 H   0  0  0  0  0  0  0  0  0  0  0  0
   11.1404  -25.7613  -14.9968 H   0  0  0  0  0  0  0  0  0  0  0  0
    9.3881  -27.4546  -15.1172 H   0  0  0  0  0  0  0  0  0  0  0  0
   10.3850  -28.6256  -14.2587 H   0  0  0  0  0  0  0  0  0  0  0  0
   13.0933  -25.6600   -9.1609 H   0  0  0  0  0  0  0  0  0  0  0  0
   12.0412  -24.6177  -10.1141 H   0  0  0  0  0  0  0  0  0  0  0  0
   12.8404  -27.8179  -13.5055 H   0  0  0  0  0  0  0  0  0  0  0  0
   13.3062  -26.1780  -13.9528 H   0  0  0  0  0  0  0  0  0  0  0  0
   13.7820  -25.6043  -11.5478 H   0  0  0  0  0  0  0  0  0  0  0  0
   13.3370  -27.2363  -11.0435 H   0  0  0  0  0  0  0  0  0  0  0  0
    9.2308  -26.0331  -13.1219 H   0  0  0  0  0  0  0  0  0  0  0  0
    8.7270  -27.6840  -12.7504 H   0  0  0  0  0  0  0  0  0  0  0  0
   11.4564  -27.4693   -9.1732 H   0  0  0  0  0  0  0  0  0  0  0  0
   10.6731  -25.9729   -8.6419 H   0  0  0  0  0  0  0  0  0  0  0  0
   11.5313  -25.2441  -12.5042 H   0  0  0  0  0  0  0  0  0  0  0  0
   10.9685  -28.1706  -11.7497 H   0  0  0  0  0  0  0  0  0  0  0  0
  1  2  1  0  0  0  0
  1  4  2  0  0  0  0
  2  6  2  0  0  0  0
  3  5  2  0  0  0  0
  3  6  1  0  0  0  0
  4  5  1  0  0  0  0
  4  7  1  0  0  0  0
  5 17  1  0  0  0  0
  6 20  1  0  0  0  0
  7 18  1  0  0  0  0
  7 19  2  0  0  0  0
  8  9  1  0  0  0  0
  8 11  1  0  0  0  0
  9 13  1  0  0  0  0
 10 12  1  0  0  0  0
 10 14  1  0  0  0  0
 11 15  1  0  0  0  0
 12 15  1  0  0  0  0
 13 16  1  0  0  0  0
 14 17  1  0  0  0  0
 15 16  1  0  0  0  0
 16 17  1  0  0  0  0
  1 21  1  0  0  0  0
  2 22  1  0  0  0  0
  3 23  1  0  0  0  0
  8 24  1  0  0  0  0
  8 25  1  0  0  0  0
  9 26  1  0  0  0  0
  9 27  1  0  0  0  0
 10 28  1  0  0  0  0
 10 29  1  0  0  0  0
 11 30  1  0  0  0  0
 11 31  1  0  0  0  0
 12 32  1  0  0  0  0
 12 33  1  0  0  0  0
 13 34  1  0  0  0  0
 13 35  1  0  0  0  0
 14 36  1  0  0  0  0
 14 37  1  0  0  0  0
 15 38  1  0  0  0  0
 16 39  1  0  0  0  0
M  CHG  1  18  -1
M  END
> <Hybrid2>
-6.404062271118164

> <Hybrid2>
-6.404062

$$$$
C36827292
  -OEChem-02152218513D

 39 41  0     1  0  0  0  0  0999 V2000
    8.0855  -26.1416   -9.1134 C   0  0  0  0  0  0  0  0  0  0  0  0
    7.5341  -27.3971   -8.8580 C   0  0  0  0  0  0  0  0  0  0  0  0
    9.0984  -28.3983  -10.4032 C   0  0  0  0  0  0  0  0  0  0  0  0
    9.1433  -26.0144  -10.0138 C   0  0  0  0  0  0  0  0  0  0  0  0
    9.6497  -27.1428  -10.6587 C   0  0  0  0  0  0  0  0  0  0  0  0
    8.0406  -28.5255   -9.5029 C   0  0  0  0  0  0  0  0  0  0  0  0
    9.7066  -24.6749  -10.2666 C   0  0  0  0  0  0  0  0  0  0  0  0
   14.9367  -27.8558  -11.0240 C   0  0  0  0  0  0  0  0  0  0  0  0
   13.9992  -28.0254   -9.8342 C   0  0  0  0  0  0  0  0  0  0  0  0
   11.1400  -25.5635  -13.4671 C   0  0  0  0  0  0  0  0  0  0  0  0
   14.5207  -26.6820  -11.9051 C   0  0  0  0  0  0  0  0  0  0  0  0
   12.6516  -25.6437  -13.2530 C   0  0  0  0  0  0  0  0  0  0  0  0
   12.5373  -28.1246  -10.2678 C   0  0  0  0  0  0  0  0  0  0  0  0
   10.4022  -26.8096  -12.9802 C   0  0  0  0  0  0  0  0  0  0  0  0
   13.0552  -26.8072  -12.3407 C   0  0  2  0  0  0  0  0  0  0  0  0
   12.1115  -26.9116  -11.1181 C   0  0  1  0  0  0  0  0  0  0  0  0
   10.7065  -27.0363  -11.5623 N   0  0  1  0  0  0  0  0  0  0  0  0
   10.6784  -24.2656   -9.5298 O   0  5  0  0  0  0  0  0  0  0  0  0
    9.2057  -23.9641  -11.2145 O   0  0  0  0  0  0  0  0  0  0  0  0
    7.2925  -30.2263   -9.1570 Br  0  0  0  0  0  0  0  0  0  0  0  0
    7.6819  -25.2694   -8.6052 H   0  0  0  0  0  0  0  0  0  0  0  0
    6.7103  -27.4796   -8.1540 H   0  0  0  0  0  0  0  0  0  0  0  0
    9.4954  -29.2763  -10.9086 H   0  0  0  0  0  0  0  0  0  0  0  0
   15.9621  -27.7067  -10.6687 H   0  0  0  0  0  0  0  0  0  0  0  0
   14.9366  -28.7763  -11.6204 H   0  0  0  0  0  0  0  0  0  0  0  0
   14.2782  -28.9233   -9.2720 H   0  0  0  0  0  0  0  0  0  0  0  0
   14.1181  -27.1733   -9.1545 H   0  0  0  0  0  0  0  0  0  0  0  0
   10.7442  -24.6773  -12.9443 H   0  0  0  0  0  0  0  0  0  0  0  0
   10.9255  -25.4040  -14.5382 H   0  0  0  0  0  0  0  0  0  0  0  0
   14.6700  -25.7423  -11.3578 H   0  0  0  0  0  0  0  0  0  0  0  0
   15.1736  -26.6443  -12.7857 H   0  0  0  0  0  0  0  0  0  0  0  0
   13.1497  -25.7441  -14.2380 H   0  0  0  0  0  0  0  0  0  0  0  0
   13.0173  -24.6845  -12.8326 H   0  0  0  0  0  0  0  0  0  0  0  0
   12.3902  -29.0536  -10.8348 H   0  0  0  0  0  0  0  0  0  0  0  0
   11.9219  -28.1980   -9.3630 H   0  0  0  0  0  0  0  0  0  0  0  0
    9.3281  -26.6754  -13.1154 H   0  0  0  0  0  0  0  0  0  0  0  0
   10.7238  -27.6595  -13.5828 H   0  0  0  0  0  0  0  0  0  0  0  0
   12.9659  -27.7356  -12.9304 H   0  0  0  0  0  0  0  0  0  0  0  0
   12.2014  -26.0020  -10.5021 H   0  0  0  0  0  0  0  0  0  0  0  0
  1  2  1  0  0  0  0
  1  4  2  0  0  0  0
  2  6  2  0  0  0  0
  3  5  2  0  0  0  0
  3  6  1  0  0  0  0
  4  5  1  0  0  0  0
  4  7  1  0  0  0  0
  5 17  1  0  0  0  0
  6 20  1  0  0  0  0
  7 18  1  0  0  0  0
  7 19  2  0  0  0  0
  8  9  1  0  0  0  0
  8 11  1  0  0  0  0
  9 13  1  0  0  0  0
 10 12  1  0  0  0  0
 10 14  1  0  0  0  0
 11 15  1  0  0  0  0
 12 15  1  0  0  0  0
 13 16  1  0  0  0  0
 14 17  1  0  0  0  0
 15 16  1  0  0  0  0
 16 17  1  0  0  0  0
  1 21  1  0  0  0  0
  2 22  1  0  0  0  0
  3 23  1  0  0  0  0
  8 24  1  0  0  0  0
  8 25  1  0  0  0  0
  9 26  1  0  0  0  0
  9 27  1  0  0  0  0
 10 28  1  0  0  0  0
 10 29  1  0  0  0  0
 11 30  1  0  0  0  0
 11 31  1  0  0  0  0
 12 32  1  0  0  0  0
 12 33  1  0  0  0  0
 13 34  1  0  0  0  0
 13 35  1  0  0  0  0
 14 36  1  0  0  0  0
 14 37  1  0  0  0  0
 15 38  1  0  0  0  0
 16 39  1  0  0  0  0
M  CHG  1  18  -1
M  END
> <Hybrid2>
-6.404062271118164

> <Hybrid2>
-5.874441

$$$$
C37335249
  -OEChem-02152218513D

 25 26  0     0  0  0  0  0  0999 V2000
    8.8631  -26.3365   -8.7280 C   0  0  0  0  0  0  0  0  0  0  0  0
   10.1905  -26.2033   -9.2286 C   0  0  0  0  0  0  0  0  0  0  0  0
    4.4102  -27.2137   -9.1425 C   0  0  0  0  0  0  0  0  0  0  0  0
    5.1795  -29.4643   -8.7186 C   0  0  0  0  0  0  0  0  0  0  0  0
    6.7719  -27.7174   -9.2181 C   0  0  0  0  0  0  0  0  0  0  0  0
    4.1358  -28.5461   -8.8347 C   0  0  0  0  0  0  0  0  0  0  0  0
    5.7282  -26.7992   -9.3343 C   0  0  0  0  0  0  0  0  0  0  0  0
    6.4975  -29.0499   -8.9103 C   0  0  0  0  0  0  0  0  0  0  0  0
    8.1429  -27.2867   -9.4178 C   0  0  0  0  0  0  0  0  0  0  0  0
   10.4342  -27.0570  -10.2819 C   0  0  0  0  0  0  0  0  0  0  0  0
   11.6206  -27.2172  -11.0294 C   0  0  0  0  0  0  0  0  0  0  0  0
   12.8599  -27.5707  -10.5430 C   0  0  0  0  0  0  0  0  0  0  0  0
   14.1109  -27.7140  -11.4231 C   0  0  0  0  0  0  0  0  0  0  0  0
   13.9737  -27.4907  -12.6583 O   0  5  0  0  0  0  0  0  0  0  0  0
   15.1526  -28.0484  -10.7849 O   0  0  0  0  0  0  0  0  0  0  0  0
    9.0662  -28.0137  -10.6634 S   0  0  0  0  0  0  0  0  0  0  0  0
    2.5097  -29.0582   -8.5997 Cl  0  0  0  0  0  0  0  0  0  0  0  0
    6.0012  -25.1327   -9.7157 Cl  0  0  0  0  0  0  0  0  0  0  0  0
    7.7468  -30.2379   -8.7515 Cl  0  0  0  0  0  0  0  0  0  0  0  0
    8.4641  -25.7607   -7.9021 H   0  0  0  0  0  0  0  0  0  0  0  0
   10.9244  -25.5138   -8.8293 H   0  0  0  0  0  0  0  0  0  0  0  0
    3.5942  -26.4997   -9.2332 H   0  0  0  0  0  0  0  0  0  0  0  0
    4.9627  -30.5031   -8.4784 H   0  0  0  0  0  0  0  0  0  0  0  0
   11.5762  -27.0229  -12.1264 H   0  0  0  0  0  0  0  0  0  0  0  0
   12.9597  -27.7446   -9.4724 H   0  0  0  0  0  0  0  0  0  0  0  0
  1  2  1  0  0  0  0
  1  9  2  0  0  0  0
  2 10  2  0  0  0  0
  3  6  1  0  0  0  0
  3  7  2  0  0  0  0
  4  6  2  0  0  0  0
  4  8  1  0  0  0  0
  5  7  1  0  0  0  0
  5  8  2  0  0  0  0
  5  9  1  0  0  0  0
  6 17  1  0  0  0  0
  7 18  1  0  0  0  0
  8 19  1  0  0  0  0
  9 16  1  0  0  0  0
 10 11  1  0  0  0  0
 10 16  1  0  0  0  0
 11 12  2  0  0  0  0
 12 13  1  0  0  0  0
 13 14  1  0  0  0  0
 13 15  2  0  0  0  0
  1 20  1  0  0  0  0
  2 21  1  0  0  0  0
  3 22  1  0  0  0  0
  4 23  1  0  0  0  0
 11 24  1  0  0  0  0
 12 25  1  0  0  0  0
M  CHG  1  14  -1
M  END
> <Hybrid2>
-5.206181526184082

> <Hybrid2>
-5.206182

$$$$
C37335249
  -OEChem-02152218513D

 25 26  0     0  0  0  0  0  0999 V2000
    9.0055  -26.5134  -10.9587 C   0  0  0  0  0  0  0  0  0  0  0  0
   10.3751  -26.2379  -11.2386 C   0  0  0  0  0  0  0  0  0  0  0  0
    5.5477  -27.6381   -8.2114 C   0  0  0  0  0  0  0  0  0  0  0  0
    6.2262  -29.8639   -8.8611 C   0  0  0  0  0  0  0  0  0  0  0  0
    7.6424  -27.9732   -9.3677 C   0  0  0  0  0  0  0  0  0  0  0  0
    5.3018  -29.0102   -8.2591 C   0  0  0  0  0  0  0  0  0  0  0  0
    6.7180  -27.1195   -8.7657 C   0  0  0  0  0  0  0  0  0  0  0  0
    7.3965  -29.3454   -9.4154 C   0  0  0  0  0  0  0  0  0  0  0  0
    8.8596  -27.4341   -9.9446 C   0  0  0  0  0  0  0  0  0  0  0  0
   11.2240  -26.9585  -10.4273 C   0  0  0  0  0  0  0  0  0  0  0  0
   12.6351  -26.9527  -10.4031 C   0  0  0  0  0  0  0  0  0  0  0  0
   13.4674  -28.0326  -10.5991 C   0  0  0  0  0  0  0  0  0  0  0  0
   15.0003  -27.9471  -10.5455 C   0  0  0  0  0  0  0  0  0  0  0  0
   15.5012  -27.0721   -9.7853 O   0  5  0  0  0  0  0  0  0  0  0  0
   15.5882  -28.7856  -11.2909 O   0  0  0  0  0  0  0  0  0  0  0  0
   10.3698  -27.9623   -9.3342 S   0  0  0  0  0  0  0  0  0  0  0  0
    3.8572  -29.6502   -7.5769 Cl  0  0  0  0  0  0  0  0  0  0  0  0
    6.9624  -25.4080   -8.6754 Cl  0  0  0  0  0  0  0  0  0  0  0  0
    8.5032  -30.4577  -10.1470 Cl  0  0  0  0  0  0  0  0  0  0  0  0
    8.1742  -26.0544  -11.4795 H   0  0  0  0  0  0  0  0  0  0  0  0
   10.7126  -25.5432  -11.9982 H   0  0  0  0  0  0  0  0  0  0  0  0
    4.8246  -26.9743   -7.7419 H   0  0  0  0  0  0  0  0  0  0  0  0
    6.0320  -30.9338   -8.8970 H   0  0  0  0  0  0  0  0  0  0  0  0
   13.1490  -25.9876  -10.1847 H   0  0  0  0  0  0  0  0  0  0  0  0
   13.0112  -29.0034  -10.7890 H   0  0  0  0  0  0  0  0  0  0  0  0
  1  2  1  0  0  0  0
  1  9  2  0  0  0  0
  2 10  2  0  0  0  0
  3  6  1  0  0  0  0
  3  7  2  0  0  0  0
  4  6  2  0  0  0  0
  4  8  1  0  0  0  0
  5  7  1  0  0  0  0
  5  8  2  0  0  0  0
  5  9  1  0  0  0  0
  6 17  1  0  0  0  0
  7 18  1  0  0  0  0
  8 19  1  0  0  0  0
  9 16  1  0  0  0  0
 10 11  1  0  0  0  0
 10 16  1  0  0  0  0
 11 12  2  0  0  0  0
 12 13  1  0  0  0  0
 13 14  1  0  0  0  0
 13 15  2  0  0  0  0
  1 20  1  0  0  0  0
  2 21  1  0  0  0  0
  3 22  1  0  0  0  0
  4 23  1  0  0  0  0
 11 24  1  0  0  0  0
 12 25  1  0  0  0  0
M  CHG  1  14  -1
M  END
> <Hybrid2>
-5.206181526184082

> <Hybrid2>
-4.815866

$$$$
C37368730
  -OEChem-02152218513D

 28 30  0     0  0  0  0  0  0999 V2000
    7.5351  -22.5841  -10.1952 C   0  0  0  0  0  0  0  0  0  0  0  0
   11.8989  -27.0257   -9.8835 C   0  0  0  0  0  0  0  0  0  0  0  0
   12.1480  -27.0290  -11.2559 C   0  0  0  0  0  0  0  0  0  0  0  0
    6.8599  -23.8362  -10.1155 C   0  0  0  0  0  0  0  0  0  0  0  0
    9.7769  -27.2023  -11.6859 C   0  0  0  0  0  0  0  0  0  0  0  0
    8.8805  -22.7036   -9.9245 C   0  0  0  0  0  0  0  0  0  0  0  0
   10.5887  -27.1108   -9.4122 C   0  0  0  0  0  0  0  0  0  0  0  0
    9.5278  -27.1990  -10.3135 C   0  0  0  0  0  0  0  0  0  0  0  0
   11.0870  -27.1173  -12.1571 C   0  0  0  0  0  0  0  0  0  0  0  0
    7.7151  -24.8652   -9.7872 C   0  0  0  0  0  0  0  0  0  0  0  0
    7.3883  -26.2330   -9.6255 C   0  0  0  0  0  0  0  0  0  0  0  0
    7.4934  -28.4000   -9.5786 C   0  0  0  0  0  0  0  0  0  0  0  0
   10.3566  -27.1047   -7.9357 C   0  0  0  0  0  0  0  0  0  0  0  0
    6.2216  -26.6760   -9.2145 N   0  0  0  0  0  0  0  0  0  0  0  0
    6.2885  -28.0547   -9.1846 N   0  0  0  0  0  0  0  0  0  0  0  0
    8.2197  -27.2844   -9.8664 N   0  0  0  0  0  0  0  0  0  0  0  0
    8.0591  -29.9980   -9.7100 S   0  5  0  0  0  0  0  0  0  0  0  0
    9.3247  -24.3203   -9.5762 S   0  0  0  0  0  0  0  0  0  0  0  0
   11.4252  -27.1226  -14.0164 Br  0  0  0  0  0  0  0  0  0  0  0  0
    7.0586  -21.6436  -10.4394 H   0  0  0  0  0  0  0  0  0  0  0  0
   12.7326  -26.9568   -9.1898 H   0  0  0  0  0  0  0  0  0  0  0  0
   13.1748  -26.9620  -11.6060 H   0  0  0  0  0  0  0  0  0  0  0  0
    5.7995  -23.9662  -10.2934 H   0  0  0  0  0  0  0  0  0  0  0  0
    8.9482  -27.2717  -12.3881 H   0  0  0  0  0  0  0  0  0  0  0  0
    9.6236  -21.9189   -9.9144 H   0  0  0  0  0  0  0  0  0  0  0  0
   10.2256  -26.0776   -7.5772 H   0  0  0  0  0  0  0  0  0  0  0  0
    9.4632  -27.6841   -7.6738 H   0  0  0  0  0  0  0  0  0  0  0  0
   11.2002  -27.5578   -7.4012 H   0  0  0  0  0  0  0  0  0  0  0  0
  1  4  1  0  0  0  0
  1  6  2  0  0  0  0
  2  3  2  0  0  0  0
  2  7  1  0  0  0  0
  3  9  1  0  0  0  0
  4 10  2  0  0  0  0
  5  8  1  0  0  0  0
  5  9  2  0  0  0  0
  6 18  1  0  0  0  0
  7  8  2  0  0  0  0
  7 13  1  0  0  0  0
  8 16  1  0  0  0  0
  9 19  1  0  0  0  0
 10 11  1  0  0  0  0
 10 18  1  0  0  0  0
 11 14  2  0  0  0  0
 11 16  1  0  0  0  0
 12 15  2  0  0  0  0
 12 16  1  0  0  0  0
 12 17  1  0  0  0  0
 14 15  1  0  0  0  0
  1 20  1  0  0  0  0
  2 21  1  0  0  0  0
  3 22  1  0  0  0  0
  4 23  1  0  0  0  0
  5 24  1  0  0  0  0
  6 25  1  0  0  0  0
 13 26  1  0  0  0  0
 13 27  1  0  0  0  0
 13 28  1  0  0  0  0
M  CHG  1  17  -1
M  END
> <Hybrid2>
-5.764797210693359

> <Hybrid2>
-5.764797

$$$$
C37368730
  -OEChem-02152218513D

 28 30  0     0  0  0  0  0  0999 V2000
    6.8066  -30.7239   -8.4987 C   0  0  0  0  0  0  0  0  0  0  0  0
   10.6120  -27.2595  -12.0179 C   0  0  0  0  0  0  0  0  0  0  0  0
   11.6529  -27.2651  -11.0895 C   0  0  0  0  0  0  0  0  0  0  0  0
    6.4097  -29.3647   -8.3400 C   0  0  0  0  0  0  0  0  0  0  0  0
   10.1074  -26.6068   -9.3530 C   0  0  0  0  0  0  0  0  0  0  0  0
    7.6974  -30.8849   -9.5370 C   0  0  0  0  0  0  0  0  0  0  0  0
    9.3188  -26.9275  -11.6140 C   0  0  0  0  0  0  0  0  0  0  0  0
    9.0665  -26.6012  -10.2815 C   0  0  0  0  0  0  0  0  0  0  0  0
   11.4006  -26.9388   -9.7570 C   0  0  0  0  0  0  0  0  0  0  0  0
    7.0125  -28.5385   -9.2631 C   0  0  0  0  0  0  0  0  0  0  0  0
    6.8508  -27.1384   -9.3951 C   0  0  0  0  0  0  0  0  0  0  0  0
    7.2059  -25.0390   -9.8140 C   0  0  0  0  0  0  0  0  0  0  0  0
    8.2263  -26.9311  -12.6341 C   0  0  0  0  0  0  0  0  0  0  0  0
    5.7558  -26.4829   -9.0827 N   0  0  0  0  0  0  0  0  0  0  0  0
    5.9817  -25.1472   -9.3491 N   0  0  0  0  0  0  0  0  0  0  0  0
    7.7900  -26.2685   -9.8598 N   0  0  0  0  0  0  0  0  0  0  0  0
    7.9481  -23.5838  -10.2856 S   0  5  0  0  0  0  0  0  0  0  0  0
    8.0519  -29.4014  -10.3154 S   0  0  0  0  0  0  0  0  0  0  0  0
   12.8114  -26.9457   -8.4996 Br  0  0  0  0  0  0  0  0  0  0  0  0
    6.4572  -31.5418   -7.8822 H   0  0  0  0  0  0  0  0  0  0  0  0
   10.8192  -27.5151  -13.0537 H   0  0  0  0  0  0  0  0  0  0  0  0
   12.6544  -27.5263  -11.4211 H   0  0  0  0  0  0  0  0  0  0  0  0
    5.7169  -29.0193   -7.5825 H   0  0  0  0  0  0  0  0  0  0  0  0
    9.9094  -26.3515   -8.3136 H   0  0  0  0  0  0  0  0  0  0  0  0
    8.1567  -31.8027   -9.8758 H   0  0  0  0  0  0  0  0  0  0  0  0
    7.7601  -27.9213  -12.6860 H   0  0  0  0  0  0  0  0  0  0  0  0
    7.4540  -26.1924  -12.3887 H   0  0  0  0  0  0  0  0  0  0  0  0
    8.6125  -26.6727  -13.6275 H   0  0  0  0  0  0  0  0  0  0  0  0
  1  4  1  0  0  0  0
  1  6  2  0  0  0  0
  2  3  2  0  0  0  0
  2  7  1  0  0  0  0
  3  9  1  0  0  0  0
  4 10  2  0  0  0  0
  5  8  1  0  0  0  0
  5  9  2  0  0  0  0
  6 18  1  0  0  0  0
  7  8  2  0  0  0  0
  7 13  1  0  0  0  0
  8 16  1  0  0  0  0
  9 19  1  0  0  0  0
 10 11  1  0  0  0  0
 10 18  1  0  0  0  0
 11 14  2  0  0  0  0
 11 16  1  0  0  0  0
 12 15  2  0  0  0  0
 12 16  1  0  0  0  0
 12 17  1  0  0  0  0
 14 15  1  0  0  0  0
  1 20  1  0  0  0  0
  2 21  1  0  0  0  0
  3 22  1  0  0  0  0
  4 23  1  0  0  0  0
  5 24  1  0  0  0  0
  6 25  1  0  0  0  0
 13 26  1  0  0  0  0
 13 27  1  0  0  0  0
 13 28  1  0  0  0  0
M  CHG  1  17  -1
M  END
> <Hybrid2>
-5.764797210693359

> <Hybrid2>
-5.319644

$$$$
C36670611
  -OEChem-02152218513D

 32 34  0     0  0  0  0  0  0999 V2000
    5.6345  -27.3710   -9.1011 C   0  0  0  0  0  0  0  0  0  0  0  0
   10.1647  -27.0116  -12.8983 C   0  0  0  0  0  0  0  0  0  0  0  0
    9.3569  -26.7419  -11.7915 C   0  0  0  0  0  0  0  0  0  0  0  0
    5.8348  -28.7384   -8.9121 C   0  0  0  0  0  0  0  0  0  0  0  0
   11.3140  -26.4792  -10.3692 C   0  0  0  0  0  0  0  0  0  0  0  0
    8.2219  -28.4141   -9.0956 C   0  0  0  0  0  0  0  0  0  0  0  0
    6.7279  -26.5252   -9.2874 C   0  0  0  0  0  0  0  0  0  0  0  0
   11.5386  -26.9985  -12.7263 C   0  0  0  0  0  0  0  0  0  0  0  0
   12.1074  -26.7354  -11.4745 C   0  0  0  0  0  0  0  0  0  0  0  0
    9.9274  -26.4774  -10.5361 C   0  0  0  0  0  0  0  0  0  0  0  0
    8.0216  -27.0467   -9.2846 C   0  0  0  0  0  0  0  0  0  0  0  0
    7.1285  -29.2600   -8.9093 C   0  0  0  0  0  0  0  0  0  0  0  0
    6.4981  -25.0830   -9.4861 C   0  0  0  0  0  0  0  0  0  0  0  0
   12.5975  -27.2913  -13.7417 C   0  0  0  0  0  0  0  0  0  0  0  0
   13.5992  -26.8291  -11.5367 C   0  0  0  0  0  0  0  0  0  0  0  0
   13.8413  -26.7139  -13.0492 C   0  0  0  0  0  0  0  0  0  0  0  0
    5.2884  -24.6439   -9.4819 O   0  5  0  0  0  0  0  0  0  0  0  0
    7.5151  -24.3131   -9.6572 O   0  0  0  0  0  0  0  0  0  0  0  0
    9.1191  -26.2238   -9.4688 O   0  0  0  0  0  0  0  0  0  0  0  0
    7.3998  -31.1130   -8.6534 Br  0  0  0  0  0  0  0  0  0  0  0  0
    4.6222  -26.9752   -9.1018 H   0  0  0  0  0  0  0  0  0  0  0  0
    9.7214  -27.2265  -13.8646 H   0  0  0  0  0  0  0  0  0  0  0  0
    8.2758  -26.7435  -11.9061 H   0  0  0  0  0  0  0  0  0  0  0  0
    4.9716  -29.3832   -8.7689 H   0  0  0  0  0  0  0  0  0  0  0  0
   11.7586  -26.2868   -9.3981 H   0  0  0  0  0  0  0  0  0  0  0  0
    9.2340  -28.8118   -9.0955 H   0  0  0  0  0  0  0  0  0  0  0  0
   12.6916  -28.3722  -13.8878 H   0  0  0  0  0  0  0  0  0  0  0  0
   12.4097  -26.7981  -14.6995 H   0  0  0  0  0  0  0  0  0  0  0  0
   14.0934  -26.0210  -10.9903 H   0  0  0  0  0  0  0  0  0  0  0  0
   13.9315  -27.7997  -11.1543 H   0  0  0  0  0  0  0  0  0  0  0  0
   14.7637  -27.2122  -13.3636 H   0  0  0  0  0  0  0  0  0  0  0  0
   13.9409  -25.6524  -13.3164 H   0  0  0  0  0  0  0  0  0  0  0  0
  1  4  2  0  0  0  0
  1  7  1  0  0  0  0
  2  3  1  0  0  0  0
  2  8  2  0  0  0  0
  3 10  2  0  0  0  0
  4 12  1  0  0  0  0
  5  9  2  0  0  0  0
  5 10  1  0  0  0  0
  6 11  1  0  0  0  0
  6 12  2  0  0  0  0
  7 11  2  0  0  0  0
  7 13  1  0  0  0  0
  8  9  1  0  0  0  0
  8 14  1  0  0  0  0
  9 15  1  0  0  0  0
 10 19  1  0  0  0  0
 11 19  1  0  0  0  0
 12 20  1  0  0  0  0
 13 17  1  0  0  0  0
 13 18  2  0  0  0  0
 14 16  1  0  0  0  0
 15 16  1  0  0  0  0
  1 21  1  0  0  0  0
  2 22  1  0  0  0  0
  3 23  1  0  0  0  0
  4 24  1  0  0  0  0
  5 25  1  0  0  0  0
  6 26  1  0  0  0  0
 14 27  1  0  0  0  0
 14 28  1  0  0  0  0
 15 29  1  0  0  0  0
 15 30  1  0  0  0  0
 16 31  1  0  0  0  0
 16 32  1  0  0  0  0
M  CHG  1  17  -1
M  END
> <Hybrid2>
-7.342119216918945

> <Hybrid2>
-7.342119

$$$$
C36670611
  -OEChem-02152218513D

 32 34  0     0  0  0  0  0  0999 V2000
    5.5165  -28.8762   -9.5102 C   0  0  0  0  0  0  0  0  0  0  0  0
   10.3593  -27.2275  -12.4934 C   0  0  0  0  0  0  0  0  0  0  0  0
    9.4119  -27.3031  -11.4702 C   0  0  0  0  0  0  0  0  0  0  0  0
    5.8482  -30.2268   -9.6170 C   0  0  0  0  0  0  0  0  0  0  0  0
   11.1624  -27.2301   -9.7813 C   0  0  0  0  0  0  0  0  0  0  0  0
    8.1893  -29.6686   -9.4056 C   0  0  0  0  0  0  0  0  0  0  0  0
    6.5212  -27.9217   -9.3512 C   0  0  0  0  0  0  0  0  0  0  0  0
   11.6964  -27.1413  -12.1442 C   0  0  0  0  0  0  0  0  0  0  0  0
   12.0939  -27.1429  -10.8019 C   0  0  0  0  0  0  0  0  0  0  0  0
    9.8105  -27.3042  -10.1239 C   0  0  0  0  0  0  0  0  0  0  0  0
    7.8576  -28.3179   -9.2988 C   0  0  0  0  0  0  0  0  0  0  0  0
    7.1846  -30.6230   -9.5647 C   0  0  0  0  0  0  0  0  0  0  0  0
    6.1529  -26.4990   -9.2403 C   0  0  0  0  0  0  0  0  0  0  0  0
   12.8846  -27.0890  -13.0516 C   0  0  0  0  0  0  0  0  0  0  0  0
   13.5847  -27.0933  -10.6875 C   0  0  0  0  0  0  0  0  0  0  0  0
   13.9736  -26.5946  -12.0875 C   0  0  0  0  0  0  0  0  0  0  0  0
    4.9081  -26.1771   -9.2939 O   0  5  0  0  0  0  0  0  0  0  0  0
    7.0891  -25.6281   -9.0942 O   0  0  0  0  0  0  0  0  0  0  0  0
    8.8687  -27.3858   -9.1426 O   0  0  0  0  0  0  0  0  0  0  0  0
    7.6340  -32.4533   -9.7096 Br  0  0  0  0  0  0  0  0  0  0  0  0
    4.4720  -28.5784   -9.5525 H   0  0  0  0  0  0  0  0  0  0  0  0
   10.0495  -27.2379  -13.5329 H   0  0  0  0  0  0  0  0  0  0  0  0
    8.3564  -27.3676  -11.7231 H   0  0  0  0  0  0  0  0  0  0  0  0
    5.0528  -30.9572   -9.7410 H   0  0  0  0  0  0  0  0  0  0  0  0
   11.4754  -27.2424   -8.7423 H   0  0  0  0  0  0  0  0  0  0  0  0
    9.2339  -29.9680   -9.3644 H   0  0  0  0  0  0  0  0  0  0  0  0
   13.1151  -28.0904  -13.4294 H   0  0  0  0  0  0  0  0  0  0  0  0
   12.7465  -26.3958  -13.8860 H   0  0  0  0  0  0  0  0  0  0  0  0
   13.9230  -26.4033   -9.9095 H   0  0  0  0  0  0  0  0  0  0  0  0
   13.9813  -28.0962  -10.4990 H   0  0  0  0  0  0  0  0  0  0  0  0
   14.9747  -26.9226  -12.3843 H   0  0  0  0  0  0  0  0  0  0  0  0
   13.9810  -25.4956  -12.0872 H   0  0  0  0  0  0  0  0  0  0  0  0
  1  4  2  0  0  0  0
  1  7  1  0  0  0  0
  2  3  1  0  0  0  0
  2  8  2  0  0  0  0
  3 10  2  0  0  0  0
  4 12  1  0  0  0  0
  5  9  2  0  0  0  0
  5 10  1  0  0  0  0
  6 11  1  0  0  0  0
  6 12  2  0  0  0  0
  7 11  2  0  0  0  0
  7 13  1  0  0  0  0
  8  9  1  0  0  0  0
  8 14  1  0  0  0  0
  9 15  1  0  0  0  0
 10 19  1  0  0  0  0
 11 19  1  0  0  0  0
 12 20  1  0  0  0  0
 13 17  1  0  0  0  0
 13 18  2  0  0  0  0
 14 16  1  0  0  0  0
 15 16  1  0  0  0  0
  1 21  1  0  0  0  0
  2 22  1  0  0  0  0
  3 23  1  0  0  0  0
  4 24  1  0  0  0  0
  5 25  1  0  0  0  0
  6 26  1  0  0  0  0
 14 27  1  0  0  0  0
 14 28  1  0  0  0  0
 15 29  1  0  0  0  0
 15 30  1  0  0  0  0
 16 31  1  0  0  0  0
 16 32  1  0  0  0  0
M  CHG  1  17  -1
M  END
> <Hybrid2>
-7.342119216918945

> <Hybrid2>
-6.048851

$$$$
C18211914
  -OEChem-02152218513D

 30 31  0     0  0  0  0  0  0999 V2000
    5.4645  -27.9684   -8.3559 C   0  0  0  0  0  0  0  0  0  0  0  0
    6.3884  -28.9274   -8.7709 C   0  0  0  0  0  0  0  0  0  0  0  0
    5.7142  -26.6150   -8.5831 C   0  0  0  0  0  0  0  0  0  0  0  0
    7.8120  -27.1796   -9.6401 C   0  0  0  0  0  0  0  0  0  0  0  0
   13.7682  -26.9554  -12.2747 C   0  0  0  0  0  0  0  0  0  0  0  0
    7.5622  -28.5330   -9.4129 C   0  0  0  0  0  0  0  0  0  0  0  0
    6.8880  -26.2206   -9.2252 C   0  0  0  0  0  0  0  0  0  0  0  0
   13.8946  -27.5575  -11.0395 C   0  0  0  0  0  0  0  0  0  0  0  0
   12.5690  -26.3130  -12.5059 C   0  0  0  0  0  0  0  0  0  0  0  0
   11.8086  -26.8814  -10.4405 C   0  0  0  0  0  0  0  0  0  0  0  0
   14.8735  -27.0120  -13.2756 C   0  0  0  0  0  0  0  0  0  0  0  0
   15.1473  -28.2838  -10.6744 C   0  0  0  0  0  0  0  0  0  0  0  0
    9.0727  -26.7561  -10.3304 C   0  0  0  0  0  0  0  0  0  0  0  0
   12.9313  -27.5400  -10.0950 N   0  0  0  0  0  0  0  0  0  0  0  0
   11.5637  -26.2562  -11.6079 N   0  0  0  0  0  0  0  0  0  0  0  0
   12.3179  -25.7134  -13.6079 O   0  5  0  0  0  0  0  0  0  0  0  0
   10.5190  -26.8343   -9.2346 S   0  0  0  0  0  0  0  0  0  0  0  0
    8.6782  -29.7535   -9.9102 Cl  0  0  0  0  0  0  0  0  0  0  0  0
    7.1548  -24.5351   -9.4899 Cl  0  0  0  0  0  0  0  0  0  0  0  0
    4.5511  -28.2759   -7.8550 H   0  0  0  0  0  0  0  0  0  0  0  0
    6.1789  -29.9777   -8.5840 H   0  0  0  0  0  0  0  0  0  0  0  0
    4.9833  -25.8810   -8.2536 H   0  0  0  0  0  0  0  0  0  0  0  0
   14.7638  -27.8960  -13.9151 H   0  0  0  0  0  0  0  0  0  0  0  0
   14.8785  -26.1189  -13.9135 H   0  0  0  0  0  0  0  0  0  0  0  0
   15.8536  -27.0570  -12.7836 H   0  0  0  0  0  0  0  0  0  0  0  0
   15.8584  -27.5991  -10.1978 H   0  0  0  0  0  0  0  0  0  0  0  0
   14.9396  -29.1094   -9.9824 H   0  0  0  0  0  0  0  0  0  0  0  0
   15.6239  -28.7221  -11.5601 H   0  0  0  0  0  0  0  0  0  0  0  0
    9.2628  -27.3888  -11.2069 H   0  0  0  0  0  0  0  0  0  0  0  0
    8.9759  -25.7297  -10.7067 H   0  0  0  0  0  0  0  0  0  0  0  0
  1  2  1  0  0  0  0
  1  3  2  0  0  0  0
  2  6  2  0  0  0  0
  3  7  1  0  0  0  0
  4  6  1  0  0  0  0
  4  7  2  0  0  0  0
  4 13  1  0  0  0  0
  5  8  1  0  0  0  0
  5  9  2  0  0  0  0
  5 11  1  0  0  0  0
  6 18  1  0  0  0  0
  7 19  1  0  0  0  0
  8 12  1  0  0  0  0
  8 14  2  0  0  0  0
  9 15  1  0  0  0  0
  9 16  1  0  0  0  0
 10 14  1  0  0  0  0
 10 15  2  0  0  0  0
 10 17  1  0  0  0  0
 13 17  1  0  0  0  0
  1 20  1  0  0  0  0
  2 21  1  0  0  0  0
  3 22  1  0  0  0  0
 11 23  1  0  0  0  0
 11 24  1  0  0  0  0
 11 25  1  0  0  0  0
 12 26  1  0  0  0  0
 12 27  1  0  0  0  0
 12 28  1  0  0  0  0
 13 29  1  0  0  0  0
 13 30  1  0  0  0  0
M  CHG  1  16  -1
M  END
> <Hybrid2>
-5.366837501525879

> <Hybrid2>
-5.366838

$$$$
C18211914
  -OEChem-02152218513D

 30 31  0     0  0  0  0  0  0999 V2000
    5.4236  -27.7003   -8.5319 C   0  0  0  0  0  0  0  0  0  0  0  0
    6.1397  -26.5298   -8.7820 C   0  0  0  0  0  0  0  0  0  0  0  0
    5.9905  -28.9408   -8.8245 C   0  0  0  0  0  0  0  0  0  0  0  0
    7.9897  -27.8401   -9.6174 C   0  0  0  0  0  0  0  0  0  0  0  0
   13.7064  -26.4927  -12.4436 C   0  0  0  0  0  0  0  0  0  0  0  0
    7.4228  -26.5997   -9.3248 C   0  0  0  0  0  0  0  0  0  0  0  0
    7.2735  -29.0107   -9.3673 C   0  0  0  0  0  0  0  0  0  0  0  0
   13.2637  -27.4141  -11.5166 C   0  0  0  0  0  0  0  0  0  0  0  0
   12.7252  -25.9007  -13.2125 C   0  0  0  0  0  0  0  0  0  0  0  0
   11.1055  -27.0943  -12.1547 C   0  0  0  0  0  0  0  0  0  0  0  0
   15.1581  -26.1771  -12.5830 C   0  0  0  0  0  0  0  0  0  0  0  0
   14.2330  -28.1208  -10.6271 C   0  0  0  0  0  0  0  0  0  0  0  0
    9.3681  -27.9150  -10.1999 C   0  0  0  0  0  0  0  0  0  0  0  0
   11.9658  -27.7402  -11.3447 N   0  0  0  0  0  0  0  0  0  0  0  0
   11.4103  -26.1791  -13.0944 N   0  0  0  0  0  0  0  0  0  0  0  0
   12.9948  -25.0292  -14.1095 O   0  5  0  0  0  0  0  0  0  0  0  0
    9.3949  -27.4915  -11.9658 S   0  0  0  0  0  0  0  0  0  0  0  0
    8.2737  -25.1258   -9.6179 Cl  0  0  0  0  0  0  0  0  0  0  0  0
    7.9384  -30.5671   -9.7101 Cl  0  0  0  0  0  0  0  0  0  0  0  0
    4.4242  -27.6454   -8.1103 H   0  0  0  0  0  0  0  0  0  0  0  0
    5.6821  -25.5713   -8.5500 H   0  0  0  0  0  0  0  0  0  0  0  0
    5.4187  -29.8429   -8.6229 H   0  0  0  0  0  0  0  0  0  0  0  0
   15.6246  -26.8450  -13.3171 H   0  0  0  0  0  0  0  0  0  0  0  0
   15.3102  -25.1403  -12.9091 H   0  0  0  0  0  0  0  0  0  0  0  0
   15.6833  -26.2899  -11.6259 H   0  0  0  0  0  0  0  0  0  0  0  0
   14.3844  -27.5521   -9.7023 H   0  0  0  0  0  0  0  0  0  0  0  0
   13.8731  -29.1236  -10.3659 H   0  0  0  0  0  0  0  0  0  0  0  0
   15.2040  -28.2490  -11.1216 H   0  0  0  0  0  0  0  0  0  0  0  0
   10.0484  -27.2383   -9.6671 H   0  0  0  0  0  0  0  0  0  0  0  0
    9.7802  -28.9249  -10.0777 H   0  0  0  0  0  0  0  0  0  0  0  0
  1  2  1  0  0  0  0
  1  3  2  0  0  0  0
  2  6  2  0  0  0  0
  3  7  1  0  0  0  0
  4  6  1  0  0  0  0
  4  7  2  0  0  0  0
  4 13  1  0  0  0  0
  5  8  1  0  0  0  0
  5  9  2  0  0  0  0
  5 11  1  0  0  0  0
  6 18  1  0  0  0  0
  7 19  1  0  0  0  0
  8 12  1  0  0  0  0
  8 14  2  0  0  0  0
  9 15  1  0  0  0  0
  9 16  1  0  0  0  0
 10 14  1  0  0  0  0
 10 15  2  0  0  0  0
 10 17  1  0  0  0  0
 13 17  1  0  0  0  0
  1 20  1  0  0  0  0
  2 21  1  0  0  0  0
  3 22  1  0  0  0  0
 11 23  1  0  0  0  0
 11 24  1  0  0  0  0
 11 25  1  0  0  0  0
 12 26  1  0  0  0  0
 12 27  1  0  0  0  0
 12 28  1  0  0  0  0
 13 29  1  0  0  0  0
 13 30  1  0  0  0  0
M  CHG  1  16  -1
M  END
> <Hybrid2>
-5.366837501525879

> <Hybrid2>
-5.346797

$$$$
C05554072
  -OEChem-02152218513D

 54 55  0     1  0  0  0  0  0999 V2000
    6.3030  -27.8731  -10.2479 C   0  0  0  0  0  0  0  0  0  0  0  0
    6.3072  -26.5671   -9.9294 C   0  0  0  0  0  0  0  0  0  0  0  0
    7.4824  -28.7350  -10.0058 C   0  0  0  0  0  0  0  0  0  0  0  0
   14.2617  -26.2914  -11.6035 C   0  0  0  0  0  0  0  0  0  0  0  0
    8.7470  -28.1127   -9.4600 C   0  0  0  0  0  0  0  0  0  0  0  0
    8.9302  -23.7052   -9.3712 C   0  0  0  0  0  0  0  0  0  0  0  0
    7.6353  -24.3951   -9.7848 C   0  0  0  0  0  0  0  0  0  0  0  0
    8.8301  -26.6168   -9.8125 C   0  0  1  0  0  0  0  0  0  0  0  0
   10.1697  -24.4290   -9.9143 C   0  0  2  0  0  0  0  0  0  0  0  0
    7.5411  -25.8662   -9.3170 C   0  0  2  0  0  0  0  0  0  0  0  0
   10.2241  -25.9401   -9.4905 C   0  0  1  0  0  0  0  0  0  0  0  0
    5.0460  -25.7654  -10.1359 C   0  0  0  0  0  0  0  0  0  0  0  0
   11.4144  -23.6084   -9.5421 C   0  0  0  0  0  0  0  0  0  0  0  0
    7.3260  -25.9077   -7.7867 C   0  0  0  0  0  0  0  0  0  0  0  0
   10.6639  -26.1048   -8.0210 C   0  0  0  0  0  0  0  0  0  0  0  0
   11.5447  -27.4093  -14.1414 C   0  0  0  0  0  0  0  0  0  0  0  0
   13.3029  -26.2357  -12.7990 C   0  0  0  0  0  0  0  0  0  0  0  0
   11.3174  -26.6415  -10.3482 C   0  0  0  0  0  0  0  0  0  0  0  0
   10.9825  -26.5178  -11.8244 C   0  0  0  0  0  0  0  0  0  0  0  0
   12.0670  -27.1481  -12.7246 C   0  0  1  0  0  0  0  0  0  0  0  0
   14.8734  -25.2225  -11.3286 O   0  5  0  0  0  0  0  0  0  0  0  0
    7.4012  -29.9451  -10.2133 O   0  0  0  0  0  0  0  0  0  0  0  0
   14.3075  -27.4141  -11.0235 O   0  0  0  0  0  0  0  0  0  0  0  0
    5.4253  -28.3580  -10.6626 H   0  0  0  0  0  0  0  0  0  0  0  0
    8.7743  -28.2905   -8.3815 H   0  0  0  0  0  0  0  0  0  0  0  0
    9.5766  -28.6609   -9.9156 H   0  0  0  0  0  0  0  0  0  0  0  0
    8.9087  -22.6796   -9.7623 H   0  0  0  0  0  0  0  0  0  0  0  0
    8.9835  -23.6087   -8.2815 H   0  0  0  0  0  0  0  0  0  0  0  0
    6.7970  -23.8086   -9.3875 H   0  0  0  0  0  0  0  0  0  0  0  0
    7.5536  -24.3475  -10.8794 H   0  0  0  0  0  0  0  0  0  0  0  0
    8.7667  -26.5785  -10.9149 H   0  0  0  0  0  0  0  0  0  0  0  0
   10.0966  -24.4004  -11.0116 H   0  0  0  0  0  0  0  0  0  0  0  0
    4.4471  -25.8084   -9.2325 H   0  0  0  0  0  0  0  0  0  0  0  0
    4.4918  -26.1846  -10.9693 H   0  0  0  0  0  0  0  0  0  0  0  0
    5.3121  -24.7370  -10.3568 H   0  0  0  0  0  0  0  0  0  0  0  0
   11.5334  -23.6045   -8.4630 H   0  0  0  0  0  0  0  0  0  0  0  0
   11.2937  -22.5901   -9.8985 H   0  0  0  0  0  0  0  0  0  0  0  0
   12.2903  -24.0542  -10.0033 H   0  0  0  0  0  0  0  0  0  0  0  0
    8.1660  -25.4271   -7.3015 H   0  0  0  0  0  0  0  0  0  0  0  0
    7.2562  -26.9407   -7.4705 H   0  0  0  0  0  0  0  0  0  0  0  0
    6.4095  -25.3834   -7.5473 H   0  0  0  0  0  0  0  0  0  0  0  0
   11.6216  -25.6173   -7.8817 H   0  0  0  0  0  0  0  0  0  0  0  0
   10.7514  -27.1608   -7.7943 H   0  0  0  0  0  0  0  0  0  0  0  0
    9.9212  -25.6496   -7.3765 H   0  0  0  0  0  0  0  0  0  0  0  0
   11.2350  -26.4741  -14.6203 H   0  0  0  0  0  0  0  0  0  0  0  0
   12.3169  -27.8533  -14.7765 H   0  0  0  0  0  0  0  0  0  0  0  0
   10.6820  -28.0841  -14.1284 H   0  0  0  0  0  0  0  0  0  0  0  0
   13.9063  -26.5100  -13.6743 H   0  0  0  0  0  0  0  0  0  0  0  0
   12.9834  -25.1962  -12.9504 H   0  0  0  0  0  0  0  0  0  0  0  0
   12.2649  -26.1666  -10.1159 H   0  0  0  0  0  0  0  0  0  0  0  0
   11.3516  -27.6759  -10.0250 H   0  0  0  0  0  0  0  0  0  0  0  0
   10.0128  -26.9900  -12.0280 H   0  0  0  0  0  0  0  0  0  0  0  0
   10.8710  -25.4569  -12.0787 H   0  0  0  0  0  0  0  0  0  0  0  0
   12.3614  -28.1138  -12.2947 H   0  0  0  0  0  0  0  0  0  0  0  0
  1  2  2  0  0  0  0
  1  3  1  0  0  0  0
  2 10  1  0  0  0  0
  2 12  1  0  0  0  0
  3  5  1  0  0  0  0
  3 22  2  0  0  0  0
  4 17  1  0  0  0  0
  4 21  1  0  0  0  0
  4 23  2  0  0  0  0
  5  8  1  0  0  0  0
  6  7  1  0  0  0  0
  6  9  1  0  0  0  0
  7 10  1  0  0  0  0
  8 10  1  0  0  0  0
  8 11  1  0  0  0  0
  9 11  1  0  0  0  0
  9 13  1  0  0  0  0
 10 14  1  0  0  0  0
 11 15  1  0  0  0  0
 11 18  1  0  0  0  0
 16 20  1  0  0  0  0
 17 20  1  0  0  0  0
 18 19  1  0  0  0  0
 19 20  1  0  0  0  0
  1 24  1  0  0  0  0
  5 25  1  0  0  0  0
  5 26  1  0  0  0  0
  6 27  1  0  0  0  0
  6 28  1  0  0  0  0
  7 29  1  0  0  0  0
  7 30  1  0  0  0  0
  8 31  1  0  0  0  0
  9 32  1  0  0  0  0
 12 33  1  0  0  0  0
 12 34  1  0  0  0  0
 12 35  1  0  0  0  0
 13 36  1  0  0  0  0
 13 37  1  0  0  0  0
 13 38  1  0  0  0  0
 14 39  1  0  0  0  0
 14 40  1  0  0  0  0
 14 41  1  0  0  0  0
 15 42  1  0  0  0  0
 15 43  1  0  0  0  0
 15 44  1  0  0  0  0
 16 45  1  0  0  0  0
 16 46  1  0  0  0  0
 16 47  1  0  0  0  0
 17 48  1  0  0  0  0
 17 49  1  0  0  0  0
 18 50  1  0  0  0  0
 18 51  1  0  0  0  0
 19 52  1  0  0  0  0
 19 53  1  0  0  0  0
 20 54  1  0  0  0  0
M  CHG  1  21  -1
M  END
> <Hybrid2>
-2.423815965652466

> <Hybrid2>
-2.423816

$$$$
C05554072
  -OEChem-02152218513D

 54 55  0     1  0  0  0  0  0999 V2000
    7.9658  -23.0818   -9.8093 C   0  0  0  0  0  0  0  0  0  0  0  0
    7.3482  -24.0088   -9.0568 C   0  0  0  0  0  0  0  0  0  0  0  0
    8.4445  -23.3854  -11.1772 C   0  0  0  0  0  0  0  0  0  0  0  0
   14.7195  -27.8256  -10.6845 C   0  0  0  0  0  0  0  0  0  0  0  0
    8.3045  -24.7934  -11.7085 C   0  0  0  0  0  0  0  0  0  0  0  0
    7.1554  -27.9185   -8.8134 C   0  0  0  0  0  0  0  0  0  0  0  0
    7.1845  -26.4596   -8.3722 C   0  0  0  0  0  0  0  0  0  0  0  0
    8.2597  -25.8204  -10.5629 C   0  0  1  0  0  0  0  0  0  0  0  0
    8.3134  -28.2588   -9.7613 C   0  0  2  0  0  0  0  0  0  0  0  0
    7.1170  -25.4562   -9.5470 C   0  0  2  0  0  0  0  0  0  0  0  0
    8.3540  -27.3304  -11.0272 C   0  0  1  0  0  0  0  0  0  0  0  0
    6.8213  -23.6096   -7.7006 C   0  0  0  0  0  0  0  0  0  0  0  0
    8.2669  -29.7642  -10.0654 C   0  0  0  0  0  0  0  0  0  0  0  0
    5.6951  -25.4676  -10.1535 C   0  0  0  0  0  0  0  0  0  0  0  0
    7.2776  -27.7259  -12.0592 C   0  0  0  0  0  0  0  0  0  0  0  0
   12.4719  -26.5505  -12.6487 C   0  0  0  0  0  0  0  0  0  0  0  0
   13.3615  -27.1758  -10.3928 C   0  0  0  0  0  0  0  0  0  0  0  0
    9.7251  -27.5396  -11.7338 C   0  0  0  0  0  0  0  0  0  0  0  0
   10.8597  -27.1916  -10.7860 C   0  0  0  0  0  0  0  0  0  0  0  0
   12.2462  -27.4371  -11.4192 C   0  0  1  0  0  0  0  0  0  0  0  0
   15.6251  -27.6347   -9.8268 O   0  5  0  0  0  0  0  0  0  0  0  0
    8.9089  -22.4816  -11.8710 O   0  0  0  0  0  0  0  0  0  0  0  0
   14.7575  -28.4957  -11.7562 O   0  0  0  0  0  0  0  0  0  0  0  0
    8.1082  -22.0641   -9.4607 H   0  0  0  0  0  0  0  0  0  0  0  0
    7.4119  -24.8309  -12.3390 H   0  0  0  0  0  0  0  0  0  0  0  0
    9.1771  -24.9663  -12.3448 H   0  0  0  0  0  0  0  0  0  0  0  0
    7.2251  -28.5465   -7.9157 H   0  0  0  0  0  0  0  0  0  0  0  0
    6.1921  -28.1617   -9.2745 H   0  0  0  0  0  0  0  0  0  0  0  0
    6.3497  -26.2989   -7.6779 H   0  0  0  0  0  0  0  0  0  0  0  0
    8.1034  -26.2926   -7.7935 H   0  0  0  0  0  0  0  0  0  0  0  0
    9.1951  -25.6594   -9.9974 H   0  0  0  0  0  0  0  0  0  0  0  0
    9.2430  -28.0848   -9.1994 H   0  0  0  0  0  0  0  0  0  0  0  0
    5.7994  -23.2615   -7.8061 H   0  0  0  0  0  0  0  0  0  0  0  0
    7.4438  -22.8175   -7.2974 H   0  0  0  0  0  0  0  0  0  0  0  0
    6.8546  -24.4699   -7.0404 H   0  0  0  0  0  0  0  0  0  0  0  0
    7.3631  -29.9911  -10.6225 H   0  0  0  0  0  0  0  0  0  0  0  0
    8.2686  -30.3199   -9.1327 H   0  0  0  0  0  0  0  0  0  0  0  0
    9.1363  -30.0393  -10.6546 H   0  0  0  0  0  0  0  0  0  0  0  0
    5.4767  -26.4641  -10.5161 H   0  0  0  0  0  0  0  0  0  0  0  0
    5.6570  -24.7588  -10.9709 H   0  0  0  0  0  0  0  0  0  0  0  0
    4.9844  -25.1879   -9.3862 H   0  0  0  0  0  0  0  0  0  0  0  0
    7.4086  -28.7681  -12.3252 H   0  0  0  0  0  0  0  0  0  0  0  0
    7.3868  -27.1041  -12.9400 H   0  0  0  0  0  0  0  0  0  0  0  0
    6.2972  -27.5773  -11.6221 H   0  0  0  0  0  0  0  0  0  0  0  0
   12.4272  -25.4903  -12.3769 H   0  0  0  0  0  0  0  0  0  0  0  0
   13.4563  -26.7257  -13.0925 H   0  0  0  0  0  0  0  0  0  0  0  0
   11.7123  -26.7350  -13.4160 H   0  0  0  0  0  0  0  0  0  0  0  0
   13.5570  -26.0970  -10.3337 H   0  0  0  0  0  0  0  0  0  0  0  0
   13.0240  -27.4893   -9.3961 H   0  0  0  0  0  0  0  0  0  0  0  0
    9.7735  -28.5779  -12.0453 H   0  0  0  0  0  0  0  0  0  0  0  0
    9.7225  -26.9061  -12.6138 H   0  0  0  0  0  0  0  0  0  0  0  0
   10.7765  -26.1428  -10.4734 H   0  0  0  0  0  0  0  0  0  0  0  0
   10.7640  -27.7958   -9.8758 H   0  0  0  0  0  0  0  0  0  0  0  0
   12.3012  -28.4826  -11.7479 H   0  0  0  0  0  0  0  0  0  0  0  0
  1  2  2  0  0  0  0
  1  3  1  0  0  0  0
  2 10  1  0  0  0  0
  2 12  1  0  0  0  0
  3  5  1  0  0  0  0
  3 22  2  0  0  0  0
  4 17  1  0  0  0  0
  4 21  1  0  0  0  0
  4 23  2  0  0  0  0
  5  8  1  0  0  0  0
  6  7  1  0  0  0  0
  6  9  1  0  0  0  0
  7 10  1  0  0  0  0
  8 10  1  0  0  0  0
  8 11  1  0  0  0  0
  9 11  1  0  0  0  0
  9 13  1  0  0  0  0
 10 14  1  0  0  0  0
 11 15  1  0  0  0  0
 11 18  1  0  0  0  0
 16 20  1  0  0  0  0
 17 20  1  0  0  0  0
 18 19  1  0  0  0  0
 19 20  1  0  0  0  0
  1 24  1  0  0  0  0
  5 25  1  0  0  0  0
  5 26  1  0  0  0  0
  6 27  1  0  0  0  0
  6 28  1  0  0  0  0
  7 29  1  0  0  0  0
  7 30  1  0  0  0  0
  8 31  1  0  0  0  0
  9 32  1  0  0  0  0
 12 33  1  0  0  0  0
 12 34  1  0  0  0  0
 12 35  1  0  0  0  0
 13 36  1  0  0  0  0
 13 37  1  0  0  0  0
 13 38  1  0  0  0  0
 14 39  1  0  0  0  0
 14 40  1  0  0  0  0
 14 41  1  0  0  0  0
 15 42  1  0  0  0  0
 15 43  1  0  0  0  0
 15 44  1  0  0  0  0
 16 45  1  0  0  0  0
 16 46  1  0  0  0  0
 16 47  1  0  0  0  0
 17 48  1  0  0  0  0
 17 49  1  0  0  0  0
 18 50  1  0  0  0  0
 18 51  1  0  0  0  0
 19 52  1  0  0  0  0
 19 53  1  0  0  0  0
 20 54  1  0  0  0  0
M  CHG  1  21  -1
M  END
> <Hybrid2>
-2.423815965652466

> <Hybrid2>
-2.313648

$$$$
C31165851
  -OEChem-02152218513D

 54 55  0     1  0  0  0  0  0999 V2000
   10.0540  -26.6785  -13.7586 C   0  0  0  0  0  0  0  0  0  0  0  0
   11.2469  -27.1849  -13.4031 C   0  0  0  0  0  0  0  0  0  0  0  0
    9.4954  -25.4718  -13.1098 C   0  0  0  0  0  0  0  0  0  0  0  0
    5.5968  -27.8676   -8.7128 C   0  0  0  0  0  0  0  0  0  0  0  0
   10.2648  -24.8143  -11.9901 C   0  0  0  0  0  0  0  0  0  0  0  0
   12.3235  -28.4434  -10.5676 C   0  0  0  0  0  0  0  0  0  0  0  0
   13.0420  -27.5526  -11.5701 C   0  0  0  0  0  0  0  0  0  0  0  0
   11.2385  -25.7646  -11.2647 C   0  0  2  0  0  0  0  0  0  0  0  0
   11.5982  -27.6265   -9.4903 C   0  0  2  0  0  0  0  0  0  0  0  0
   12.1180  -26.5495  -12.3100 C   0  0  2  0  0  0  0  0  0  0  0  0
   10.5568  -26.6431  -10.1291 C   0  0  1  0  0  0  0  0  0  0  0  0
   11.7807  -28.3733  -14.1618 C   0  0  0  0  0  0  0  0  0  0  0  0
   12.6198  -26.9489   -8.5594 C   0  0  0  0  0  0  0  0  0  0  0  0
   13.0653  -25.5569  -13.0428 C   0  0  0  0  0  0  0  0  0  0  0  0
    9.9871  -25.7151   -9.0216 C   0  0  0  0  0  0  0  0  0  0  0  0
    7.2372  -30.2617   -8.9369 C   0  0  0  0  0  0  0  0  0  0  0  0
    6.3088  -28.2076  -10.0277 C   0  0  0  0  0  0  0  0  0  0  0  0
    9.3525  -27.4794  -10.6270 C   0  0  0  0  0  0  0  0  0  0  0  0
    8.7815  -28.3157   -9.4913 C   0  0  0  0  0  0  0  0  0  0  0  0
    7.5385  -29.1250   -9.9196 C   0  0  1  0  0  0  0  0  0  0  0  0
    6.2802  -27.2471   -7.8525 O   0  5  0  0  0  0  0  0  0  0  0  0
    8.4349  -25.0008  -13.5193 O   0  0  0  0  0  0  0  0  0  0  0  0
    4.3902  -28.2426   -8.6610 O   0  0  0  0  0  0  0  0  0  0  0  0
    9.4589  -27.1205  -14.5511 H   0  0  0  0  0  0  0  0  0  0  0  0
   10.8178  -23.9770  -12.4321 H   0  0  0  0  0  0  0  0  0  0  0  0
    9.5459  -24.3736  -11.2947 H   0  0  0  0  0  0  0  0  0  0  0  0
   11.6189  -29.1019  -11.0861 H   0  0  0  0  0  0  0  0  0  0  0  0
   13.0552  -29.1104  -10.0946 H   0  0  0  0  0  0  0  0  0  0  0  0
   13.8270  -26.9967  -11.0405 H   0  0  0  0  0  0  0  0  0  0  0  0
   13.5876  -28.1860  -12.2798 H   0  0  0  0  0  0  0  0  0  0  0  0
   11.9310  -25.1012  -10.7244 H   0  0  0  0  0  0  0  0  0  0  0  0
   11.0550  -28.3442   -8.8592 H   0  0  0  0  0  0  0  0  0  0  0  0
   12.3713  -28.0224  -15.0018 H   0  0  0  0  0  0  0  0  0  0  0  0
   10.9478  -28.9711  -14.5184 H   0  0  0  0  0  0  0  0  0  0  0  0
   12.3980  -28.9706  -13.4983 H   0  0  0  0  0  0  0  0  0  0  0  0
   13.1930  -26.2230   -9.1262 H   0  0  0  0  0  0  0  0  0  0  0  0
   13.2850  -27.7020   -8.1508 H   0  0  0  0  0  0  0  0  0  0  0  0
   12.0924  -26.4500   -7.7533 H   0  0  0  0  0  0  0  0  0  0  0  0
   13.6993  -25.0849  -12.3074 H   0  0  0  0  0  0  0  0  0  0  0  0
   12.4607  -24.8200  -13.5497 H   0  0  0  0  0  0  0  0  0  0  0  0
   13.6586  -26.1130  -13.7528 H   0  0  0  0  0  0  0  0  0  0  0  0
    9.5290  -26.3300   -8.2607 H   0  0  0  0  0  0  0  0  0  0  0  0
    9.2539  -25.0590   -9.4674 H   0  0  0  0  0  0  0  0  0  0  0  0
   10.8009  -25.1413   -8.6026 H   0  0  0  0  0  0  0  0  0  0  0  0
    7.0325  -29.8664   -7.9361 H   0  0  0  0  0  0  0  0  0  0  0  0
    6.3543  -30.8309   -9.2427 H   0  0  0  0  0  0  0  0  0  0  0  0
    8.0819  -30.9547   -8.8603 H   0  0  0  0  0  0  0  0  0  0  0  0
    6.6100  -27.2435  -10.4582 H   0  0  0  0  0  0  0  0  0  0  0  0
    5.5815  -28.6486  -10.7221 H   0  0  0  0  0  0  0  0  0  0  0  0
    8.6079  -26.7892  -11.0167 H   0  0  0  0  0  0  0  0  0  0  0  0
    9.7104  -28.1021  -11.4424 H   0  0  0  0  0  0  0  0  0  0  0  0
    9.5523  -28.9968   -9.1084 H   0  0  0  0  0  0  0  0  0  0  0  0
    8.5138  -27.6511   -8.6609 H   0  0  0  0  0  0  0  0  0  0  0  0
    7.7349  -29.5760  -10.9005 H   0  0  0  0  0  0  0  0  0  0  0  0
  1  2  2  0  0  0  0
  1  3  1  0  0  0  0
  2 10  1  0  0  0  0
  2 12  1  0  0  0  0
  3  5  1  0  0  0  0
  3 22  2  0  0  0  0
  4 17  1  0  0  0  0
  4 21  1  0  0  0  0
  4 23  2  0  0  0  0
  5  8  1  0  0  0  0
  6  7  1  0  0  0  0
  6  9  1  0  0  0  0
  7 10  1  0  0  0  0
  8 10  1  0  0  0  0
  8 11  1  0  0  0  0
  9 11  1  0  0  0  0
  9 13  1  0  0  0  0
 10 14  1  0  0  0  0
 11 15  1  0  0  0  0
 11 18  1  0  0  0  0
 16 20  1  0  0  0  0
 17 20  1  0  0  0  0
 18 19  1  0  0  0  0
 19 20  1  0  0  0  0
  1 24  1  0  0  0  0
  5 25  1  0  0  0  0
  5 26  1  0  0  0  0
  6 27  1  0  0  0  0
  6 28  1  0  0  0  0
  7 29  1  0  0  0  0
  7 30  1  0  0  0  0
  8 31  1  0  0  0  0
  9 32  1  0  0  0  0
 12 33  1  0  0  0  0
 12 34  1  0  0  0  0
 12 35  1  0  0  0  0
 13 36  1  0  0  0  0
 13 37  1  0  0  0  0
 13 38  1  0  0  0  0
 14 39  1  0  0  0  0
 14 40  1  0  0  0  0
 14 41  1  0  0  0  0
 15 42  1  0  0  0  0
 15 43  1  0  0  0  0
 15 44  1  0  0  0  0
 16 45  1  0  0  0  0
 16 46  1  0  0  0  0
 16 47  1  0  0  0  0
 17 48  1  0  0  0  0
 17 49  1  0  0  0  0
 18 50  1  0  0  0  0
 18 51  1  0  0  0  0
 19 52  1  0  0  0  0
 19 53  1  0  0  0  0
 20 54  1  0  0  0  0
M  CHG  1  21  -1
M  END
> <Hybrid2>
-2.242483377456665

> <Hybrid2>
-2.242483

$$$$
C31165851
  -OEChem-02152218513D

 54 55  0     1  0  0  0  0  0999 V2000
    7.3039  -29.6750   -9.2849 C   0  0  0  0  0  0  0  0  0  0  0  0
    6.8227  -28.5122   -8.8205 C   0  0  0  0  0  0  0  0  0  0  0  0
    8.3570  -29.7079  -10.3090 C   0  0  0  0  0  0  0  0  0  0  0  0
   13.5777  -29.0375  -10.0599 C   0  0  0  0  0  0  0  0  0  0  0  0
    8.7380  -28.4155  -10.9727 C   0  0  0  0  0  0  0  0  0  0  0  0
    6.8028  -25.1353  -10.7773 C   0  0  0  0  0  0  0  0  0  0  0  0
    6.3326  -26.4452  -10.1528 C   0  0  0  0  0  0  0  0  0  0  0  0
    8.7644  -27.2282   -9.9816 C   0  0  2  0  0  0  0  0  0  0  0  0
    8.1077  -25.2926  -11.5717 C   0  0  2  0  0  0  0  0  0  0  0  0
    7.3737  -27.1196   -9.2284 C   0  0  2  0  0  0  0  0  0  0  0  0
    9.2639  -25.8959  -10.7075 C   0  0  1  0  0  0  0  0  0  0  0  0
    5.6631  -28.5838   -7.8509 C   0  0  0  0  0  0  0  0  0  0  0  0
    8.4503  -23.9517  -12.2378 C   0  0  0  0  0  0  0  0  0  0  0  0
    7.5342  -26.3026   -7.9223 C   0  0  0  0  0  0  0  0  0  0  0  0
    9.8094  -24.8657   -9.6856 C   0  0  0  0  0  0  0  0  0  0  0  0
   13.4247  -25.9152  -12.4267 C   0  0  0  0  0  0  0  0  0  0  0  0
   13.9601  -27.7659  -10.8269 C   0  0  0  0  0  0  0  0  0  0  0  0
   10.4779  -26.2088  -11.6299 C   0  0  0  0  0  0  0  0  0  0  0  0
   11.6422  -26.7458  -10.8105 C   0  0  0  0  0  0  0  0  0  0  0  0
   12.8545  -27.1296  -11.6861 C   0  0  1  0  0  0  0  0  0  0  0  0
   14.1623  -29.2207   -8.9568 O   0  5  0  0  0  0  0  0  0  0  0  0
    8.8427  -30.7838  -10.6526 O   0  0  0  0  0  0  0  0  0  0  0  0
   12.6986  -29.7457  -10.6297 O   0  0  0  0  0  0  0  0  0  0  0  0
    6.9535  -30.6292   -8.9116 H   0  0  0  0  0  0  0  0  0  0  0  0
    9.7276  -28.5552  -11.4107 H   0  0  0  0  0  0  0  0  0  0  0  0
    8.0493  -28.2300  -11.7932 H   0  0  0  0  0  0  0  0  0  0  0  0
    6.0137  -24.7214  -11.4181 H   0  0  0  0  0  0  0  0  0  0  0  0
    6.9443  -24.3924   -9.9787 H   0  0  0  0  0  0  0  0  0  0  0  0
    5.4155  -26.2451   -9.5828 H   0  0  0  0  0  0  0  0  0  0  0  0
    6.0132  -27.1220  -10.9545 H   0  0  0  0  0  0  0  0  0  0  0  0
    9.5148  -27.4631   -9.2562 H   0  0  0  0  0  0  0  0  0  0  0  0
    7.8904  -25.9808  -12.4020 H   0  0  0  0  0  0  0  0  0  0  0  0
    6.0496  -28.6414   -6.8386 H   0  0  0  0  0  0  0  0  0  0  0  0
    5.0688  -29.4649   -8.0714 H   0  0  0  0  0  0  0  0  0  0  0  0
    5.0501  -27.6952   -7.9637 H   0  0  0  0  0  0  0  0  0  0  0  0
    8.6774  -23.2194  -11.4705 H   0  0  0  0  0  0  0  0  0  0  0  0
    7.6009  -23.6166  -12.8235 H   0  0  0  0  0  0  0  0  0  0  0  0
    9.3115  -24.0838  -12.8841 H   0  0  0  0  0  0  0  0  0  0  0  0
    7.9172  -25.3258   -8.1762 H   0  0  0  0  0  0  0  0  0  0  0  0
    8.2250  -26.8238   -7.2770 H   0  0  0  0  0  0  0  0  0  0  0  0
    6.5663  -26.2188   -7.4516 H   0  0  0  0  0  0  0  0  0  0  0  0
   10.1330  -23.9867  -10.2238 H   0  0  0  0  0  0  0  0  0  0  0  0
   10.6404  -25.3118   -9.1589 H   0  0  0  0  0  0  0  0  0  0  0  0
    9.0172  -24.6143   -8.9954 H   0  0  0  0  0  0  0  0  0  0  0  0
   13.7696  -25.1544  -11.7181 H   0  0  0  0  0  0  0  0  0  0  0  0
   14.2850  -26.1911  -13.0437 H   0  0  0  0  0  0  0  0  0  0  0  0
   12.6711  -25.4559  -13.0754 H   0  0  0  0  0  0  0  0  0  0  0  0
   14.8028  -28.0513  -11.4702 H   0  0  0  0  0  0  0  0  0  0  0  0
   14.3450  -27.0236  -10.1152 H   0  0  0  0  0  0  0  0  0  0  0  0
   10.1531  -26.9358  -12.3705 H   0  0  0  0  0  0  0  0  0  0  0  0
   10.7390  -25.2853  -12.1397 H   0  0  0  0  0  0  0  0  0  0  0  0
   11.9461  -25.9999  -10.0647 H   0  0  0  0  0  0  0  0  0  0  0  0
   11.3056  -27.6263  -10.2500 H   0  0  0  0  0  0  0  0  0  0  0  0
   12.5260  -27.8558  -12.4404 H   0  0  0  0  0  0  0  0  0  0  0  0
  1  2  2  0  0  0  0
  1  3  1  0  0  0  0
  2 10  1  0  0  0  0
  2 12  1  0  0  0  0
  3  5  1  0  0  0  0
  3 22  2  0  0  0  0
  4 17  1  0  0  0  0
  4 21  1  0  0  0  0
  4 23  2  0  0  0  0
  5  8  1  0  0  0  0
  6  7  1  0  0  0  0
  6  9  1  0  0  0  0
  7 10  1  0  0  0  0
  8 10  1  0  0  0  0
  8 11  1  0  0  0  0
  9 11  1  0  0  0  0
  9 13  1  0  0  0  0
 10 14  1  0  0  0  0
 11 15  1  0  0  0  0
 11 18  1  0  0  0  0
 16 20  1  0  0  0  0
 17 20  1  0  0  0  0
 18 19  1  0  0  0  0
 19 20  1  0  0  0  0
  1 24  1  0  0  0  0
  5 25  1  0  0  0  0
  5 26  1  0  0  0  0
  6 27  1  0  0  0  0
  6 28  1  0  0  0  0
  7 29  1  0  0  0  0
  7 30  1  0  0  0  0
  8 31  1  0  0  0  0
  9 32  1  0  0  0  0
 12 33  1  0  0  0  0
 12 34  1  0  0  0  0
 12 35  1  0  0  0  0
 13 36  1  0  0  0  0
 13 37  1  0  0  0  0
 13 38  1  0  0  0  0
 14 39  1  0  0  0  0
 14 40  1  0  0  0  0
 14 41  1  0  0  0  0
 15 42  1  0  0  0  0
 15 43  1  0  0  0  0
 15 44  1  0  0  0  0
 16 45  1  0  0  0  0
 16 46  1  0  0  0  0
 16 47  1  0  0  0  0
 17 48  1  0  0  0  0
 17 49  1  0  0  0  0
 18 50  1  0  0  0  0
 18 51  1  0  0  0  0
 19 52  1  0  0  0  0
 19 53  1  0  0  0  0
 20 54  1  0  0  0  0
M  CHG  1  21  -1
M  END
> <Hybrid2>
-2.242483377456665

> <Hybrid2>
-2.052062

$$$$
C37336417
  -OEChem-02152218513D

 39 40  0     1  0  0  0  0  0999 V2000
    5.7532  -30.3722   -8.0684 C   0  0  0  0  0  0  0  0  0  0  0  0
    6.7036  -30.8672   -8.9500 C   0  0  0  0  0  0  0  0  0  0  0  0
    5.6571  -29.0013   -7.8220 C   0  0  0  0  0  0  0  0  0  0  0  0
    7.5075  -28.6018   -9.3764 C   0  0  0  0  0  0  0  0  0  0  0  0
    8.2849  -27.5253   -9.9214 C   0  0  0  0  0  0  0  0  0  0  0  0
    7.5795  -29.9973   -9.6048 C   0  0  0  0  0  0  0  0  0  0  0  0
    6.5416  -28.1270   -8.4837 C   0  0  0  0  0  0  0  0  0  0  0  0
    7.9027  -26.2942   -9.4440 C   0  0  0  0  0  0  0  0  0  0  0  0
    8.5483  -24.9614   -9.8436 C   0  0  0  0  0  0  0  0  0  0  0  0
   15.5197  -27.6033  -10.2902 C   0  0  0  0  0  0  0  0  0  0  0  0
   14.2136  -28.9661  -11.9333 C   0  0  0  0  0  0  0  0  0  0  0  0
   11.6416  -26.2689  -12.2911 C   0  0  0  0  0  0  0  0  0  0  0  0
    9.3974  -27.7215  -10.9090 C   0  0  0  0  0  0  0  0  0  0  0  0
   12.9831  -27.3817  -10.4232 C   0  0  0  0  0  0  0  0  0  0  0  0
   14.2904  -27.6246  -11.1988 C   0  0  0  0  0  0  0  0  0  0  0  0
   11.6970  -27.3864  -11.2583 C   0  0  1  0  0  0  0  0  0  0  0  0
    9.5185  -24.5781   -9.1383 O   0  5  0  0  0  0  0  0  0  0  0  0
    8.0475  -24.3755  -10.8393 O   0  0  0  0  0  0  0  0  0  0  0  0
   10.6031  -27.2224  -10.3534 O   0  0  0  0  0  0  0  0  0  0  0  0
    8.4878  -30.5046  -10.4510 F   0  0  0  0  0  0  0  0  0  0  0  0
    6.6103  -26.4102   -8.3387 S   0  0  0  0  0  0  0  0  0  0  0  0
    5.0763  -31.0563   -7.5640 H   0  0  0  0  0  0  0  0  0  0  0  0
    6.7690  -31.9359   -9.1338 H   0  0  0  0  0  0  0  0  0  0  0  0
    4.9099  -28.6227   -7.1304 H   0  0  0  0  0  0  0  0  0  0  0  0
   15.4501  -28.3690   -9.5102 H   0  0  0  0  0  0  0  0  0  0  0  0
   15.6386  -26.6303   -9.8042 H   0  0  0  0  0  0  0  0  0  0  0  0
   16.4321  -27.7906  -10.8669 H   0  0  0  0  0  0  0  0  0  0  0  0
   14.0937  -29.7920  -11.2241 H   0  0  0  0  0  0  0  0  0  0  0  0
   13.3575  -28.9871  -12.6161 H   0  0  0  0  0  0  0  0  0  0  0  0
   15.1198  -29.1513  -12.5202 H   0  0  0  0  0  0  0  0  0  0  0  0
   11.7724  -25.2906  -11.8159 H   0  0  0  0  0  0  0  0  0  0  0  0
   12.4567  -26.3764  -13.0151 H   0  0  0  0  0  0  0  0  0  0  0  0
   10.6970  -26.2698  -12.8417 H   0  0  0  0  0  0  0  0  0  0  0  0
    9.5265  -28.7826  -11.1480 H   0  0  0  0  0  0  0  0  0  0  0  0
    9.1850  -27.1898  -11.8428 H   0  0  0  0  0  0  0  0  0  0  0  0
   13.0453  -26.4218   -9.8917 H   0  0  0  0  0  0  0  0  0  0  0  0
   12.8889  -28.1361   -9.6298 H   0  0  0  0  0  0  0  0  0  0  0  0
   14.4093  -26.8431  -11.9584 H   0  0  0  0  0  0  0  0  0  0  0  0
   11.5648  -28.3562  -11.7486 H   0  0  0  0  0  0  0  0  0  0  0  0
  1  2  1  0  0  0  0
  1  3  2  0  0  0  0
  2  6  2  0  0  0  0
  3  7  1  0  0  0  0
  4  5  1  0  0  0  0
  4  6  1  0  0  0  0
  4  7  2  0  0  0  0
  5  8  2  0  0  0  0
  5 13  1  0  0  0  0
  6 20  1  0  0  0  0
  7 21  1  0  0  0  0
  8  9  1  0  0  0  0
  8 21  1  0  0  0  0
  9 17  1  0  0  0  0
  9 18  2  0  0  0  0
 10 15  1  0  0  0  0
 11 15  1  0  0  0  0
 12 16  1  0  0  0  0
 13 19  1  0  0  0  0
 14 15  1  0  0  0  0
 14 16  1  0  0  0  0
 16 19  1  0  0  0  0
  1 22  1  0  0  0  0
  2 23  1  0  0  0  0
  3 24  1  0  0  0  0
 10 25  1  0  0  0  0
 10 26  1  0  0  0  0
 10 27  1  0  0  0  0
 11 28  1  0  0  0  0
 11 29  1  0  0  0  0
 11 30  1  0  0  0  0
 12 31  1  0  0  0  0
 12 32  1  0  0  0  0
 12 33  1  0  0  0  0
 13 34  1  0  0  0  0
 13 35  1  0  0  0  0
 14 36  1  0  0  0  0
 14 37  1  0  0  0  0
 15 38  1  0  0  0  0
 16 39  1  0  0  0  0
M  CHG  1  17  -1
M  END
> <Hybrid2>
-6.364492893218994

> <Hybrid2>
-6.364493

$$$$
C37336417
  -OEChem-02152218513D

 39 40  0     1  0  0  0  0  0999 V2000
    5.6736  -29.3058   -7.7305 C   0  0  0  0  0  0  0  0  0  0  0  0
    6.6036  -30.0553   -8.4368 C   0  0  0  0  0  0  0  0  0  0  0  0
    5.6329  -27.9163   -7.8608 C   0  0  0  0  0  0  0  0  0  0  0  0
    7.4987  -28.0197   -9.4444 C   0  0  0  0  0  0  0  0  0  0  0  0
    8.3193  -27.1594  -10.2486 C   0  0  0  0  0  0  0  0  0  0  0  0
    7.5143  -29.4271   -9.2904 C   0  0  0  0  0  0  0  0  0  0  0  0
    6.5524  -27.2861   -8.7222 C   0  0  0  0  0  0  0  0  0  0  0  0
    7.9869  -25.8315  -10.1222 C   0  0  0  0  0  0  0  0  0  0  0  0
    8.6862  -24.6805  -10.8564 C   0  0  0  0  0  0  0  0  0  0  0  0
   15.5451  -27.6143  -10.5012 C   0  0  0  0  0  0  0  0  0  0  0  0
   14.1858  -29.3153  -11.7347 C   0  0  0  0  0  0  0  0  0  0  0  0
   11.7252  -26.7146  -12.8299 C   0  0  0  0  0  0  0  0  0  0  0  0
    9.4234  -27.6558  -11.1352 C   0  0  0  0  0  0  0  0  0  0  0  0
   13.0197  -27.3380  -10.7174 C   0  0  0  0  0  0  0  0  0  0  0  0
   14.3164  -27.8302  -11.3849 C   0  0  0  0  0  0  0  0  0  0  0  0
   11.7349  -27.5161  -11.5353 C   0  0  1  0  0  0  0  0  0  0  0  0
    9.6707  -24.1603  -10.2684 O   0  5  0  0  0  0  0  0  0  0  0  0
    8.2100  -24.3635  -11.9782 O   0  0  0  0  0  0  0  0  0  0  0  0
   10.6481  -27.0735  -10.7196 O   0  0  0  0  0  0  0  0  0  0  0  0
    8.4017  -30.1773   -9.9597 F   0  0  0  0  0  0  0  0  0  0  0  0
    6.6904  -25.5971   -9.0409 S   0  0  0  0  0  0  0  0  0  0  0  0
    4.9692  -29.8031   -7.0692 H   0  0  0  0  0  0  0  0  0  0  0  0
    6.6257  -31.1358   -8.3273 H   0  0  0  0  0  0  0  0  0  0  0  0
    4.9012  -27.3376   -7.3042 H   0  0  0  0  0  0  0  0  0  0  0  0
   15.4443  -28.1399   -9.5458 H   0  0  0  0  0  0  0  0  0  0  0  0
   15.7031  -26.5520  -10.2919 H   0  0  0  0  0  0  0  0  0  0  0  0
   16.4495  -27.9843  -10.9965 H   0  0  0  0  0  0  0  0  0  0  0  0
   14.0322  -29.9160  -10.8319 H   0  0  0  0  0  0  0  0  0  0  0  0
   13.3299  -29.4851  -12.3967 H   0  0  0  0  0  0  0  0  0  0  0  0
   15.0841  -29.6860  -12.2404 H   0  0  0  0  0  0  0  0  0  0  0  0
   11.8953  -25.6506  -12.6322 H   0  0  0  0  0  0  0  0  0  0  0  0
   12.5357  -27.0436  -13.4895 H   0  0  0  0  0  0  0  0  0  0  0  0
   10.7817  -26.8261  -13.3708 H   0  0  0  0  0  0  0  0  0  0  0  0
    9.5096  -28.7464  -11.0801 H   0  0  0  0  0  0  0  0  0  0  0  0
    9.2332  -27.3857  -12.1795 H   0  0  0  0  0  0  0  0  0  0  0  0
   13.1204  -26.2740  -10.4613 H   0  0  0  0  0  0  0  0  0  0  0  0
   12.8946  -27.8483   -9.7522 H   0  0  0  0  0  0  0  0  0  0  0  0
   14.4673  -27.2858  -12.3245 H   0  0  0  0  0  0  0  0  0  0  0  0
   11.5638  -28.5758  -11.7499 H   0  0  0  0  0  0  0  0  0  0  0  0
  1  2  1  0  0  0  0
  1  3  2  0  0  0  0
  2  6  2  0  0  0  0
  3  7  1  0  0  0  0
  4  5  1  0  0  0  0
  4  6  1  0  0  0  0
  4  7  2  0  0  0  0
  5  8  2  0  0  0  0
  5 13  1  0  0  0  0
  6 20  1  0  0  0  0
  7 21  1  0  0  0  0
  8  9  1  0  0  0  0
  8 21  1  0  0  0  0
  9 17  1  0  0  0  0
  9 18  2  0  0  0  0
 10 15  1  0  0  0  0
 11 15  1  0  0  0  0
 12 16  1  0  0  0  0
 13 19  1  0  0  0  0
 14 15  1  0  0  0  0
 14 16  1  0  0  0  0
 16 19  1  0  0  0  0
  1 22  1  0  0  0  0
  2 23  1  0  0  0  0
  3 24  1  0  0  0  0
 10 25  1  0  0  0  0
 10 26  1  0  0  0  0
 10 27  1  0  0  0  0
 11 28  1  0  0  0  0
 11 29  1  0  0  0  0
 11 30  1  0  0  0  0
 12 31  1  0  0  0  0
 12 32  1  0  0  0  0
 12 33  1  0  0  0  0
 13 34  1  0  0  0  0
 13 35  1  0  0  0  0
 14 36  1  0  0  0  0
 14 37  1  0  0  0  0
 15 38  1  0  0  0  0
 16 39  1  0  0  0  0
M  CHG  1  17  -1
M  END
> <Hybrid2>
-6.364492893218994

> <Hybrid2>
-6.235788

$$$$
C40273466
  -OEChem-02152218513D

 27 29  0     1  0  0  0  0  0999 V2000
   10.9526  -26.6553   -9.6936 C   0  0  0  0  0  0  0  0  0  0  0  0
    8.2040  -28.7152   -9.7774 C   0  0  0  0  0  0  0  0  0  0  0  0
   12.1781  -26.8760  -10.3386 C   0  0  0  0  0  0  0  0  0  0  0  0
    7.4789  -29.8754   -9.5062 C   0  0  0  0  0  0  0  0  0  0  0  0
    9.7767  -26.4281  -11.8216 C   0  0  0  0  0  0  0  0  0  0  0  0
    5.7452  -28.5496   -8.4699 C   0  0  0  0  0  0  0  0  0  0  0  0
    9.7772  -26.4360  -10.4226 C   0  0  0  0  0  0  0  0  0  0  0  0
    7.6998  -27.4721   -9.3948 C   0  0  0  0  0  0  0  0  0  0  0  0
   12.1949  -26.8714  -11.7407 C   0  0  0  0  0  0  0  0  0  0  0  0
   11.0086  -26.6505  -12.4245 C   0  0  0  0  0  0  0  0  0  0  0  0
    6.4704  -27.3894   -8.7411 C   0  0  0  0  0  0  0  0  0  0  0  0
    6.2494  -29.7926   -8.8525 C   0  0  0  0  0  0  0  0  0  0  0  0
   12.6230  -26.9384  -13.8048 C   0  0  0  0  0  0  0  0  0  0  0  0
    8.4947  -26.2061   -9.6921 C   0  0  2  0  0  0  0  0  0  0  0  0
   13.2189  -27.0540  -12.6383 N   0  0  0  0  0  0  0  0  0  0  0  0
   13.2374  -27.0463  -14.8437 O   0  5  0  0  0  0  0  0  0  0  0  0
   11.2835  -26.6934  -13.7614 O   0  0  0  0  0  0  0  0  0  0  0  0
    5.9783  -26.1994   -8.3692 F   0  0  0  0  0  0  0  0  0  0  0  0
    5.3550  -31.2246   -8.5190 Cl  0  0  0  0  0  0  0  0  0  0  0  0
    7.4601  -24.9713  -10.4954 Cl  0  0  0  0  0  0  0  0  0  0  0  0
   10.9251  -26.6564   -8.6060 H   0  0  0  0  0  0  0  0  0  0  0  0
    9.1610  -28.7892  -10.2872 H   0  0  0  0  0  0  0  0  0  0  0  0
   13.0828  -27.0452   -9.7636 H   0  0  0  0  0  0  0  0  0  0  0  0
    7.8849  -30.8371   -9.8096 H   0  0  0  0  0  0  0  0  0  0  0  0
    8.8772  -26.2605  -12.4018 H   0  0  0  0  0  0  0  0  0  0  0  0
    4.7885  -28.4698   -7.9602 H   0  0  0  0  0  0  0  0  0  0  0  0
    8.7098  -25.7216   -8.7241 H   0  0  0  0  0  0  0  0  0  0  0  0
  1  3  1  0  0  0  0
  1  7  2  0  0  0  0
  2  4  2  0  0  0  0
  2  8  1  0  0  0  0
  3  9  2  0  0  0  0
  4 12  1  0  0  0  0
  5  7  1  0  0  0  0
  5 10  2  0  0  0  0
  6 11  1  0  0  0  0
  6 12  2  0  0  0  0
  7 14  1  0  0  0  0
  8 11  2  0  0  0  0
  8 14  1  0  0  0  0
  9 10  1  0  0  0  0
  9 15  1  0  0  0  0
 10 17  1  0  0  0  0
 11 18  1  0  0  0  0
 12 19  1  0  0  0  0
 13 15  2  0  0  0  0
 13 16  1  0  0  0  0
 13 17  1  0  0  0  0
 14 20  1  0  0  0  0
  1 21  1  0  0  0  0
  2 22  1  0  0  0  0
  3 23  1  0  0  0  0
  4 24  1  0  0  0  0
  5 25  1  0  0  0  0
  6 26  1  0  0  0  0
 14 27  1  0  0  0  0
M  CHG  1  16  -1
M  END
> <Hybrid2>
-7.338850021362305

> <Hybrid2>
-7.338850

$$$$
C40273466
  -OEChem-02152218513D

 27 29  0     1  0  0  0  0  0999 V2000
    5.9113  -25.8161   -9.7328 C   0  0  0  0  0  0  0  0  0  0  0  0
   10.5418  -25.9805   -9.6020 C   0  0  0  0  0  0  0  0  0  0  0  0
    4.9038  -26.6749   -9.2701 C   0  0  0  0  0  0  0  0  0  0  0  0
   11.8032  -26.5466   -9.7866 C   0  0  0  0  0  0  0  0  0  0  0  0
    7.5622  -27.6154   -9.7343 C   0  0  0  0  0  0  0  0  0  0  0  0
   11.2434  -27.0448  -12.0834 C   0  0  0  0  0  0  0  0  0  0  0  0
    7.2132  -26.2793   -9.9595 C   0  0  0  0  0  0  0  0  0  0  0  0
    9.6312  -25.9466  -10.6581 C   0  0  0  0  0  0  0  0  0  0  0  0
    5.2370  -28.0173   -9.0395 C   0  0  0  0  0  0  0  0  0  0  0  0
    6.5381  -28.4353   -9.2768 C   0  0  0  0  0  0  0  0  0  0  0  0
    9.9820  -26.4787  -11.8988 C   0  0  0  0  0  0  0  0  0  0  0  0
   12.1540  -27.0787  -11.0273 C   0  0  0  0  0  0  0  0  0  0  0  0
    5.3430  -30.0734   -8.5820 C   0  0  0  0  0  0  0  0  0  0  0  0
    8.2535  -25.3277  -10.4533 C   0  0  2  0  0  0  0  0  0  0  0  0
    4.4845  -29.0775   -8.5954 N   0  0  0  0  0  0  0  0  0  0  0  0
    5.0156  -31.1876   -8.2358 O   0  5  0  0  0  0  0  0  0  0  0  0
    6.6089  -29.7665   -8.9810 O   0  0  0  0  0  0  0  0  0  0  0  0
    9.1134  -26.4511  -12.9192 F   0  0  0  0  0  0  0  0  0  0  0  0
   13.7108  -27.7763  -11.2544 Cl  0  0  0  0  0  0  0  0  0  0  0  0
    8.3598  -23.8427   -9.4415 Cl  0  0  0  0  0  0  0  0  0  0  0  0
    5.6666  -24.7719   -9.9161 H   0  0  0  0  0  0  0  0  0  0  0  0
   10.2771  -25.5682   -8.6318 H   0  0  0  0  0  0  0  0  0  0  0  0
    3.8982  -26.3051   -9.0982 H   0  0  0  0  0  0  0  0  0  0  0  0
   12.5020  -26.5666   -8.9541 H   0  0  0  0  0  0  0  0  0  0  0  0
    8.5639  -27.9912   -9.9045 H   0  0  0  0  0  0  0  0  0  0  0  0
   11.5031  -27.4553  -13.0558 H   0  0  0  0  0  0  0  0  0  0  0  0
    7.9347  -24.9135  -11.4252 H   0  0  0  0  0  0  0  0  0  0  0  0
  1  3  1  0  0  0  0
  1  7  2  0  0  0  0
  2  4  2  0  0  0  0
  2  8  1  0  0  0  0
  3  9  2  0  0  0  0
  4 12  1  0  0  0  0
  5  7  1  0  0  0  0
  5 10  2  0  0  0  0
  6 11  1  0  0  0  0
  6 12  2  0  0  0  0
  7 14  1  0  0  0  0
  8 11  2  0  0  0  0
  8 14  1  0  0  0  0
  9 10  1  0  0  0  0
  9 15  1  0  0  0  0
 10 17  1  0  0  0  0
 11 18  1  0  0  0  0
 12 19  1  0  0  0  0
 13 15  2  0  0  0  0
 13 16  1  0  0  0  0
 13 17  1  0  0  0  0
 14 20  1  0  0  0  0
  1 21  1  0  0  0  0
  2 22  1  0  0  0  0
  3 23  1  0  0  0  0
  4 24  1  0  0  0  0
  5 25  1  0  0  0  0
  6 26  1  0  0  0  0
 14 27  1  0  0  0  0
M  CHG  1  16  -1
M  END
> <Hybrid2>
-7.338850021362305

> <Hybrid2>
-4.318364

$$$$
C41563237
  -OEChem-02152218513D

 35 36  0     1  0  0  0  0  0999 V2000
    9.4038  -27.4402  -11.8221 C   0  0  0  0  0  0  0  0  0  0  0  0
   10.4335  -26.7348   -9.7535 C   0  0  0  0  0  0  0  0  0  0  0  0
   10.6465  -27.4008  -12.4542 C   0  0  0  0  0  0  0  0  0  0  0  0
   11.6763  -26.6954  -10.3856 C   0  0  0  0  0  0  0  0  0  0  0  0
    7.5570  -28.2971   -9.1997 C   0  0  0  0  0  0  0  0  0  0  0  0
    9.2973  -27.1072  -10.4717 C   0  0  0  0  0  0  0  0  0  0  0  0
   11.7828  -27.0284  -11.7360 C   0  0  0  0  0  0  0  0  0  0  0  0
    8.0082  -27.1479   -9.8161 C   0  0  0  0  0  0  0  0  0  0  0  0
    6.3123  -28.2093   -8.6105 C   0  0  0  0  0  0  0  0  0  0  0  0
    6.1073  -26.0376   -9.2497 C   0  0  0  0  0  0  0  0  0  0  0  0
   15.1390  -25.5457  -13.1047 C   0  0  0  0  0  0  0  0  0  0  0  0
   14.0925  -28.0069  -11.7971 C   0  0  0  0  0  0  0  0  0  0  0  0
   13.7820  -25.5847  -12.4123 C   0  0  0  0  0  0  0  0  0  0  0  0
   13.1362  -26.9852  -12.4244 C   0  0  2  0  0  0  0  0  0  0  0  0
    5.7402  -29.4011   -7.9190 C   0  0  0  0  0  0  0  0  0  0  0  0
    7.3068  -25.9962   -9.8604 N   0  0  0  0  0  0  0  0  0  0  0  0
    5.5573  -27.0912   -8.6164 N   0  0  0  0  0  0  0  0  0  0  0  0
    6.5561  -30.4960   -7.9509 F   0  0  0  0  0  0  0  0  0  0  0  0
    5.4776  -29.1908   -6.5953 F   0  0  0  0  0  0  0  0  0  0  0  0
    4.5586  -29.8086   -8.4669 F   0  0  0  0  0  0  0  0  0  0  0  0
    5.1275  -24.5185   -9.2889 S   0  5  0  0  0  0  0  0  0  0  0  0
    8.5272  -27.7319  -12.3957 H   0  0  0  0  0  0  0  0  0  0  0  0
   10.3668  -26.4730   -8.7002 H   0  0  0  0  0  0  0  0  0  0  0  0
   10.7200  -27.6608  -13.5068 H   0  0  0  0  0  0  0  0  0  0  0  0
   12.5566  -26.4046   -9.8182 H   0  0  0  0  0  0  0  0  0  0  0  0
    8.1381  -29.2116   -9.1775 H   0  0  0  0  0  0  0  0  0  0  0  0
   15.0469  -25.9157  -14.1310 H   0  0  0  0  0  0  0  0  0  0  0  0
   15.5376  -24.5279  -13.1529 H   0  0  0  0  0  0  0  0  0  0  0  0
   15.8643  -26.1772  -12.5818 H   0  0  0  0  0  0  0  0  0  0  0  0
   14.2847  -27.7921  -10.7403 H   0  0  0  0  0  0  0  0  0  0  0  0
   13.6729  -29.0167  -11.8601 H   0  0  0  0  0  0  0  0  0  0  0  0
   15.0568  -28.0133  -12.3179 H   0  0  0  0  0  0  0  0  0  0  0  0
   13.8923  -25.2115  -11.3872 H   0  0  0  0  0  0  0  0  0  0  0  0
   13.1177  -24.8809  -12.9296 H   0  0  0  0  0  0  0  0  0  0  0  0
   13.0042  -27.2792  -13.4748 H   0  0  0  0  0  0  0  0  0  0  0  0
  1  3  2  0  0  0  0
  1  6  1  0  0  0  0
  2  4  1  0  0  0  0
  2  6  2  0  0  0  0
  3  7  1  0  0  0  0
  4  7  2  0  0  0  0
  5  8  1  0  0  0  0
  5  9  2  0  0  0  0
  6  8  1  0  0  0  0
  7 14  1  0  0  0  0
  8 16  2  0  0  0  0
  9 15  1  0  0  0  0
  9 17  1  0  0  0  0
 10 16  1  0  0  0  0
 10 17  2  0  0  0  0
 10 21  1  0  0  0  0
 11 13  1  0  0  0  0
 12 14  1  0  0  0  0
 13 14  1  0  0  0  0
 15 18  1  0  0  0  0
 15 19  1  0  0  0  0
 15 20  1  0  0  0  0
  1 22  1  0  0  0  0
  2 23  1  0  0  0  0
  3 24  1  0  0  0  0
  4 25  1  0  0  0  0
  5 26  1  0  0  0  0
 11 27  1  0  0  0  0
 11 28  1  0  0  0  0
 11 29  1  0  0  0  0
 12 30  1  0  0  0  0
 12 31  1  0  0  0  0
 12 32  1  0  0  0  0
 13 33  1  0  0  0  0
 13 34  1  0  0  0  0
 14 35  1  0  0  0  0
M  CHG  1  21  -1
M  END
> <Hybrid2>
-6.090616226196289

> <Hybrid2>
-6.090616

$$$$
C41563237
  -OEChem-02152218513D

 35 36  0     1  0  0  0  0  0999 V2000
   10.3504  -27.5669  -11.4069 C   0  0  0  0  0  0  0  0  0  0  0  0
   10.7780  -25.7542   -9.8681 C   0  0  0  0  0  0  0  0  0  0  0  0
   11.6909  -27.5560  -11.7923 C   0  0  0  0  0  0  0  0  0  0  0  0
   12.1185  -25.7433  -10.2534 C   0  0  0  0  0  0  0  0  0  0  0  0
    7.9300  -27.8019   -9.4882 C   0  0  0  0  0  0  0  0  0  0  0  0
    9.8939  -26.6659  -10.4448 C   0  0  0  0  0  0  0  0  0  0  0  0
   12.5750  -26.6443  -11.2155 C   0  0  0  0  0  0  0  0  0  0  0  0
    8.5034  -26.6771  -10.0453 C   0  0  0  0  0  0  0  0  0  0  0  0
    6.5972  -27.6872   -9.1496 C   0  0  0  0  0  0  0  0  0  0  0  0
    6.5427  -25.5379   -9.8876 C   0  0  0  0  0  0  0  0  0  0  0  0
   14.7630  -28.3482   -9.8828 C   0  0  0  0  0  0  0  0  0  0  0  0
   14.1657  -26.2654  -13.1187 C   0  0  0  0  0  0  0  0  0  0  0  0
   14.7601  -27.9648  -11.3577 C   0  0  0  0  0  0  0  0  0  0  0  0
   14.0348  -26.6322  -11.6354 C   0  0  2  0  0  0  0  0  0  0  0  0
    5.8903  -28.8512   -8.5404 C   0  0  0  0  0  0  0  0  0  0  0  0
    7.8368  -25.5240  -10.2601 N   0  0  0  0  0  0  0  0  0  0  0  0
    5.8702  -26.5660   -9.3359 N   0  0  0  0  0  0  0  0  0  0  0  0
    6.6845  -29.9508   -8.3805 F   0  0  0  0  0  0  0  0  0  0  0  0
    5.3838  -28.5938   -7.2986 F   0  0  0  0  0  0  0  0  0  0  0  0
    4.8295  -29.2713   -9.2892 F   0  0  0  0  0  0  0  0  0  0  0  0
    5.6061  -24.0160  -10.1625 S   0  5  0  0  0  0  0  0  0  0  0  0
    9.6734  -28.2833  -11.8662 H   0  0  0  0  0  0  0  0  0  0  0  0
   10.4375  -25.0460   -9.1164 H   0  0  0  0  0  0  0  0  0  0  0  0
   12.0375  -28.2609  -12.5434 H   0  0  0  0  0  0  0  0  0  0  0  0
   12.8006  -25.0298   -9.7984 H   0  0  0  0  0  0  0  0  0  0  0  0
    8.4856  -28.7181   -9.3257 H   0  0  0  0  0  0  0  0  0  0  0  0
   13.7367  -28.3848   -9.5031 H   0  0  0  0  0  0  0  0  0  0  0  0
   15.2115  -29.3334   -9.7236 H   0  0  0  0  0  0  0  0  0  0  0  0
   15.3172  -27.6151   -9.2881 H   0  0  0  0  0  0  0  0  0  0  0  0
   13.6717  -26.9979  -13.7663 H   0  0  0  0  0  0  0  0  0  0  0  0
   13.7119  -25.2881  -13.3154 H   0  0  0  0  0  0  0  0  0  0  0  0
   15.2186  -26.2106  -13.4180 H   0  0  0  0  0  0  0  0  0  0  0  0
   15.7941  -27.9327  -11.7213 H   0  0  0  0  0  0  0  0  0  0  0  0
   14.2593  -28.7664  -11.9150 H   0  0  0  0  0  0  0  0  0  0  0  0
   14.5556  -25.8482  -11.0687 H   0  0  0  0  0  0  0  0  0  0  0  0
  1  3  2  0  0  0  0
  1  6  1  0  0  0  0
  2  4  1  0  0  0  0
  2  6  2  0  0  0  0
  3  7  1  0  0  0  0
  4  7  2  0  0  0  0
  5  8  1  0  0  0  0
  5  9  2  0  0  0  0
  6  8  1  0  0  0  0
  7 14  1  0  0  0  0
  8 16  2  0  0  0  0
  9 15  1  0  0  0  0
  9 17  1  0  0  0  0
 10 16  1  0  0  0  0
 10 17  2  0  0  0  0
 10 21  1  0  0  0  0
 11 13  1  0  0  0  0
 12 14  1  0  0  0  0
 13 14  1  0  0  0  0
 15 18  1  0  0  0  0
 15 19  1  0  0  0  0
 15 20  1  0  0  0  0
  1 22  1  0  0  0  0
  2 23  1  0  0  0  0
  3 24  1  0  0  0  0
  4 25  1  0  0  0  0
  5 26  1  0  0  0  0
 11 27  1  0  0  0  0
 11 28  1  0  0  0  0
 11 29  1  0  0  0  0
 12 30  1  0  0  0  0
 12 31  1  0  0  0  0
 12 32  1  0  0  0  0
 13 33  1  0  0  0  0
 13 34  1  0  0  0  0
 14 35  1  0  0  0  0
M  CHG  1  21  -1
M  END
> <Hybrid2>
-6.090616226196289

> <Hybrid2>
-5.094786

$$$$
C42137160
  -OEChem-02152218513D

 30 31  0     0  0  0  0  0  0999 V2000
   12.6043  -25.2287  -12.2686 C   0  0  0  0  0  0  0  0  0  0  0  0
   14.0092  -25.1161  -12.4775 C   0  0  0  0  0  0  0  0  0  0  0  0
    6.3501  -28.3124   -9.4290 C   0  0  0  0  0  0  0  0  0  0  0  0
    7.5134  -26.2211   -9.6693 C   0  0  0  0  0  0  0  0  0  0  0  0
    6.3213  -26.9283   -9.5585 C   0  0  0  0  0  0  0  0  0  0  0  0
    7.5869  -28.9370   -9.4159 C   0  0  0  0  0  0  0  0  0  0  0  0
   12.2646  -26.4197  -11.6657 C   0  0  0  0  0  0  0  0  0  0  0  0
    8.6980  -26.9393   -9.6453 C   0  0  0  0  0  0  0  0  0  0  0  0
   14.6899  -26.2255  -12.0260 C   0  0  0  0  0  0  0  0  0  0  0  0
    7.4863  -24.7514   -9.8073 C   0  0  0  0  0  0  0  0  0  0  0  0
    4.9997  -26.2325   -9.5756 C   0  0  0  0  0  0  0  0  0  0  0  0
    7.6562  -30.4214   -9.2773 C   0  0  0  0  0  0  0  0  0  0  0  0
   10.8991  -26.9170  -11.2786 C   0  0  0  0  0  0  0  0  0  0  0  0
    8.7658  -28.2837   -9.5211 N   0  0  0  0  0  0  0  0  0  0  0  0
    7.4340  -24.2452  -10.9881 O   0  5  0  0  0  0  0  0  0  0  0  0
    7.5164  -24.0327   -8.7417 O   0  0  0  0  0  0  0  0  0  0  0  0
   13.6363  -27.3962  -11.3539 S   0  0  0  0  0  0  0  0  0  0  0  0
   10.2833  -26.1198   -9.7810 S   0  0  0  0  0  0  0  0  0  0  0  0
   16.5735  -26.4466  -12.1293 Br  0  0  0  0  0  0  0  0  0  0  0  0
   11.8826  -24.4716  -12.5481 H   0  0  0  0  0  0  0  0  0  0  0  0
   14.4868  -24.2596  -12.9369 H   0  0  0  0  0  0  0  0  0  0  0  0
    5.4325  -28.8854   -9.3404 H   0  0  0  0  0  0  0  0  0  0  0  0
    4.7013  -25.9592   -8.5569 H   0  0  0  0  0  0  0  0  0  0  0  0
    5.0397  -25.3212  -10.1848 H   0  0  0  0  0  0  0  0  0  0  0  0
    4.2208  -26.8723  -10.0086 H   0  0  0  0  0  0  0  0  0  0  0  0
    7.6355  -30.8975  -10.2648 H   0  0  0  0  0  0  0  0  0  0  0  0
    8.5738  -30.7298   -8.7605 H   0  0  0  0  0  0  0  0  0  0  0  0
    6.8141  -30.8051   -8.6873 H   0  0  0  0  0  0  0  0  0  0  0  0
   10.1865  -26.7407  -12.0920 H   0  0  0  0  0  0  0  0  0  0  0  0
   10.9251  -28.0002  -11.1156 H   0  0  0  0  0  0  0  0  0  0  0  0
  1  2  1  0  0  0  0
  1  7  2  0  0  0  0
  2  9  2  0  0  0  0
  3  5  1  0  0  0  0
  3  6  2  0  0  0  0
  4  5  2  0  0  0  0
  4  8  1  0  0  0  0
  4 10  1  0  0  0  0
  5 11  1  0  0  0  0
  6 12  1  0  0  0  0
  6 14  1  0  0  0  0
  7 13  1  0  0  0  0
  7 17  1  0  0  0  0
  8 14  2  0  0  0  0
  8 18  1  0  0  0  0
  9 17  1  0  0  0  0
  9 19  1  0  0  0  0
 10 15  1  0  0  0  0
 10 16  2  0  0  0  0
 13 18  1  0  0  0  0
  1 20  1  0  0  0  0
  2 21  1  0  0  0  0
  3 22  1  0  0  0  0
 11 23  1  0  0  0  0
 11 24  1  0  0  0  0
 11 25  1  0  0  0  0
 12 26  1  0  0  0  0
 12 27  1  0  0  0  0
 12 28  1  0  0  0  0
 13 29  1  0  0  0  0
 13 30  1  0  0  0  0
M  CHG  1  15  -1
M  END
> <Hybrid2>
-3.7625584602355957

> <Hybrid2>
-3.762558

$$$$
C42137160
  -OEChem-02152218513D

 30 31  0     0  0  0  0  0  0999 V2000
   10.9905  -27.0507  -12.4547 C   0  0  0  0  0  0  0  0  0  0  0  0
   11.4980  -26.4543  -13.6451 C   0  0  0  0  0  0  0  0  0  0  0  0
    6.6777  -27.8652  -10.3255 C   0  0  0  0  0  0  0  0  0  0  0  0
    8.2536  -26.0599  -10.1203 C   0  0  0  0  0  0  0  0  0  0  0  0
    7.0059  -26.5278  -10.5175 C   0  0  0  0  0  0  0  0  0  0  0  0
    7.6249  -28.6873   -9.7364 C   0  0  0  0  0  0  0  0  0  0  0  0
   11.9099  -27.0229  -11.4293 C   0  0  0  0  0  0  0  0  0  0  0  0
    9.1301  -26.9628   -9.5403 C   0  0  0  0  0  0  0  0  0  0  0  0
   12.7862  -25.9931  -13.4840 C   0  0  0  0  0  0  0  0  0  0  0  0
    8.6054  -24.6405  -10.3232 C   0  0  0  0  0  0  0  0  0  0  0  0
    6.0013  -25.6220  -11.1511 C   0  0  0  0  0  0  0  0  0  0  0  0
    7.3068  -30.1283   -9.5136 C   0  0  0  0  0  0  0  0  0  0  0  0
   11.7640  -27.5452  -10.0267 C   0  0  0  0  0  0  0  0  0  0  0  0
    8.8469  -28.2691   -9.3375 N   0  0  0  0  0  0  0  0  0  0  0  0
    9.1701  -24.2983  -11.4264 O   0  5  0  0  0  0  0  0  0  0  0  0
    8.3342  -23.7998   -9.3890 O   0  0  0  0  0  0  0  0  0  0  0  0
   13.3782  -26.2798  -11.9030 S   0  0  0  0  0  0  0  0  0  0  0  0
   10.7583  -26.4571   -8.9960 S   0  0  0  0  0  0  0  0  0  0  0  0
   13.7997  -25.1383  -14.8439 Br  0  0  0  0  0  0  0  0  0  0  0  0
   10.0002  -27.4777  -12.3597 H   0  0  0  0  0  0  0  0  0  0  0  0
   10.9380  -26.3726  -14.5683 H   0  0  0  0  0  0  0  0  0  0  0  0
    5.7097  -28.2528  -10.6270 H   0  0  0  0  0  0  0  0  0  0  0  0
    5.3652  -25.1652  -10.3843 H   0  0  0  0  0  0  0  0  0  0  0  0
    6.4917  -24.8229  -11.7204 H   0  0  0  0  0  0  0  0  0  0  0  0
    5.3624  -26.1698  -11.8548 H   0  0  0  0  0  0  0  0  0  0  0  0
    7.6054  -30.7235  -10.3847 H   0  0  0  0  0  0  0  0  0  0  0  0
    7.8275  -30.5182   -8.6298 H   0  0  0  0  0  0  0  0  0  0  0  0
    6.2330  -30.2762   -9.3415 H   0  0  0  0  0  0  0  0  0  0  0  0
   11.3088  -28.5418  -10.0384 H   0  0  0  0  0  0  0  0  0  0  0  0
   12.7499  -27.6577   -9.5623 H   0  0  0  0  0  0  0  0  0  0  0  0
  1  2  1  0  0  0  0
  1  7  2  0  0  0  0
  2  9  2  0  0  0  0
  3  5  1  0  0  0  0
  3  6  2  0  0  0  0
  4  5  2  0  0  0  0
  4  8  1  0  0  0  0
  4 10  1  0  0  0  0
  5 11  1  0  0  0  0
  6 12  1  0  0  0  0
  6 14  1  0  0  0  0
  7 13  1  0  0  0  0
  7 17  1  0  0  0  0
  8 14  2  0  0  0  0
  8 18  1  0  0  0  0
  9 17  1  0  0  0  0
  9 19  1  0  0  0  0
 10 15  1  0  0  0  0
 10 16  2  0  0  0  0
 13 18  1  0  0  0  0
  1 20  1  0  0  0  0
  2 21  1  0  0  0  0
  3 22  1  0  0  0  0
 11 23  1  0  0  0  0
 11 24  1  0  0  0  0
 11 25  1  0  0  0  0
 12 26  1  0  0  0  0
 12 27  1  0  0  0  0
 12 28  1  0  0  0  0
 13 29  1  0  0  0  0
 13 30  1  0  0  0  0
M  CHG  1  15  -1
M  END
> <Hybrid2>
-3.7625584602355957

> <Hybrid2>
-3.280946

$$$$
C43451406
  -OEChem-02152218513D

 48 50  0     1  0  0  0  0  0999 V2000
   12.1543  -27.3603  -10.8574 C   0  0  0  0  0  0  0  0  0  0  0  0
    6.9676  -30.5559   -8.7632 C   0  0  0  0  0  0  0  0  0  0  0  0
   11.2226  -27.3528  -11.8954 C   0  0  0  0  0  0  0  0  0  0  0  0
   11.8136  -26.8359   -9.6105 C   0  0  0  0  0  0  0  0  0  0  0  0
    7.3439  -30.1816  -10.0531 C   0  0  0  0  0  0  0  0  0  0  0  0
    6.6766  -29.5794   -7.8106 C   0  0  0  0  0  0  0  0  0  0  0  0
    9.9502  -26.8207  -11.6866 C   0  0  0  0  0  0  0  0  0  0  0  0
   10.5412  -26.3039   -9.4017 C   0  0  0  0  0  0  0  0  0  0  0  0
    7.4294  -28.8309  -10.3904 C   0  0  0  0  0  0  0  0  0  0  0  0
    6.7621  -28.2286   -8.1479 C   0  0  0  0  0  0  0  0  0  0  0  0
    9.6095  -26.2963  -10.4398 C   0  0  0  0  0  0  0  0  0  0  0  0
    7.1384  -27.8543   -9.4378 C   0  0  0  0  0  0  0  0  0  0  0  0
    8.2876  -25.7433  -10.2223 C   0  0  0  0  0  0  0  0  0  0  0  0
    7.2268  -26.4555   -9.7865 C   0  0  0  0  0  0  0  0  0  0  0  0
    6.6367  -24.2218  -10.1188 C   0  0  0  0  0  0  0  0  0  0  0  0
    5.9950  -24.7075  -12.4854 C   0  0  0  0  0  0  0  0  0  0  0  0
    7.0731  -21.8882   -9.3360 C   0  0  0  0  0  0  0  0  0  0  0  0
    4.1617  -26.9117   -9.9349 C   0  0  0  0  0  0  0  0  0  0  0  0
    5.8797  -23.7360  -11.3594 C   0  0  0  0  0  0  0  0  0  0  0  0
    6.5155  -23.2210   -8.9647 C   0  0  0  0  0  0  0  0  0  0  0  0
    4.8402  -25.8179   -9.1826 C   0  0  0  0  0  0  0  0  0  0  0  0
    8.0956  -24.4149  -10.4660 N   0  5  0  0  0  0  0  0  0  0  0  0
    6.1614  -25.5662   -9.7078 N   0  0  3  0  0  0  0  0  0  0  0  0
   13.1446  -27.7757  -11.0196 H   0  0  0  0  0  0  0  0  0  0  0  0
    6.8999  -31.6076   -8.5009 H   0  0  0  0  0  0  0  0  0  0  0  0
   11.4873  -27.7621  -12.8661 H   0  0  0  0  0  0  0  0  0  0  0  0
   12.5386  -26.8428   -8.8019 H   0  0  0  0  0  0  0  0  0  0  0  0
    7.5694  -30.9419  -10.7954 H   0  0  0  0  0  0  0  0  0  0  0  0
    6.3825  -29.8706   -6.8065 H   0  0  0  0  0  0  0  0  0  0  0  0
    9.2347  -26.8218  -12.5055 H   0  0  0  0  0  0  0  0  0  0  0  0
   10.2907  -25.8988   -8.4242 H   0  0  0  0  0  0  0  0  0  0  0  0
    7.7242  -28.5547  -11.4001 H   0  0  0  0  0  0  0  0  0  0  0  0
    6.5321  -27.4792   -7.3942 H   0  0  0  0  0  0  0  0  0  0  0  0
    7.0520  -24.8442  -12.7421 H   0  0  0  0  0  0  0  0  0  0  0  0
    5.4743  -24.3396  -13.3759 H   0  0  0  0  0  0  0  0  0  0  0  0
    5.5845  -25.6833  -12.2051 H   0  0  0  0  0  0  0  0  0  0  0  0
    8.1302  -21.9976   -9.6053 H   0  0  0  0  0  0  0  0  0  0  0  0
    7.0073  -21.1877   -8.4968 H   0  0  0  0  0  0  0  0  0  0  0  0
    6.5446  -21.4684  -10.1984 H   0  0  0  0  0  0  0  0  0  0  0  0
    4.7560  -27.8341   -9.8574 H   0  0  0  0  0  0  0  0  0  0  0  0
    3.1617  -27.0832   -9.5101 H   0  0  0  0  0  0  0  0  0  0  0  0
    4.0665  -26.6248  -10.9926 H   0  0  0  0  0  0  0  0  0  0  0  0
    4.8293  -23.5947  -11.0981 H   0  0  0  0  0  0  0  0  0  0  0  0
    6.2839  -22.7685  -11.6621 H   0  0  0  0  0  0  0  0  0  0  0  0
    5.4627  -23.1200   -8.6952 H   0  0  0  0  0  0  0  0  0  0  0  0
    7.0479  -23.6168   -8.0981 H   0  0  0  0  0  0  0  0  0  0  0  0
    4.2402  -24.8997   -9.2650 H   0  0  0  0  0  0  0  0  0  0  0  0
    4.9236  -26.1078   -8.1248 H   0  0  0  0  0  0  0  0  0  0  0  0
  1  3  1  0  0  0  0
  1  4  2  0  0  0  0
  2  5  1  0  0  0  0
  2  6  2  0  0  0  0
  3  7  2  0  0  0  0
  4  8  1  0  0  0  0
  5  9  2  0  0  0  0
  6 10  1  0  0  0  0
  7 11  1  0  0  0  0
  8 11  2  0  0  0  0
  9 12  1  0  0  0  0
 10 12  2  0  0  0  0
 11 13  1  0  0  0  0
 12 14  1  0  0  0  0
 13 14  2  0  0  0  0
 13 22  1  0  0  0  0
 14 23  1  0  0  0  0
 15 19  1  0  0  0  0
 15 20  1  0  0  0  0
 15 22  1  0  0  0  0
 15 23  1  0  0  0  0
 16 19  1  0  0  0  0
 17 20  1  0  0  0  0
 18 21  1  0  0  0  0
 21 23  1  0  0  0  0
  1 24  1  0  0  0  0
  2 25  1  0  0  0  0
  3 26  1  0  0  0  0
  4 27  1  0  0  0  0
  5 28  1  0  0  0  0
  6 29  1  0  0  0  0
  7 30  1  0  0  0  0
  8 31  1  0  0  0  0
  9 32  1  0  0  0  0
 10 33  1  0  0  0  0
 16 34  1  0  0  0  0
 16 35  1  0  0  0  0
 16 36  1  0  0  0  0
 17 37  1  0  0  0  0
 17 38  1  0  0  0  0
 17 39  1  0  0  0  0
 18 40  1  0  0  0  0
 18 41  1  0  0  0  0
 18 42  1  0  0  0  0
 19 43  1  0  0  0  0
 19 44  1  0  0  0  0
 20 45  1  0  0  0  0
 20 46  1  0  0  0  0
 21 47  1  0  0  0  0
 21 48  1  0  0  0  0
M  CHG  1  22  -1
M  END
> <Hybrid2>
-5.372701168060303

> <Hybrid2>
-5.372701

$$$$
C43451406
  -OEChem-02152218513D

 48 50  0     1  0  0  0  0  0999 V2000
    5.8417  -30.1883   -8.9033 C   0  0  0  0  0  0  0  0  0  0  0  0
    5.0471  -23.9696  -10.3855 C   0  0  0  0  0  0  0  0  0  0  0  0
    5.9206  -29.0500   -8.1011 C   0  0  0  0  0  0  0  0  0  0  0  0
    6.7743  -30.3905   -9.9207 C   0  0  0  0  0  0  0  0  0  0  0  0
    5.3452  -25.0655  -11.1953 C   0  0  0  0  0  0  0  0  0  0  0  0
    5.9524  -23.5586   -9.4071 C   0  0  0  0  0  0  0  0  0  0  0  0
    6.9319  -28.1138   -8.3162 C   0  0  0  0  0  0  0  0  0  0  0  0
    7.7857  -29.4542  -10.1359 C   0  0  0  0  0  0  0  0  0  0  0  0
    6.5485  -25.7505  -11.0267 C   0  0  0  0  0  0  0  0  0  0  0  0
    7.1557  -24.2437   -9.2384 C   0  0  0  0  0  0  0  0  0  0  0  0
    7.8645  -28.3159   -9.3337 C   0  0  0  0  0  0  0  0  0  0  0  0
    7.4538  -25.3396  -10.0482 C   0  0  0  0  0  0  0  0  0  0  0  0
    8.9155  -27.3434   -9.5578 C   0  0  0  0  0  0  0  0  0  0  0  0
    8.6999  -26.0486   -9.8731 C   0  0  0  0  0  0  0  0  0  0  0  0
   10.9874  -26.4883   -9.7237 C   0  0  0  0  0  0  0  0  0  0  0  0
   11.0694  -27.0700  -12.1534 C   0  0  0  0  0  0  0  0  0  0  0  0
   10.9587  -25.9016   -7.2939 C   0  0  0  0  0  0  0  0  0  0  0  0
    9.6481  -23.5699  -11.4798 C   0  0  0  0  0  0  0  0  0  0  0  0
   11.8760  -26.7042  -10.9531 C   0  0  0  0  0  0  0  0  0  0  0  0
   11.8200  -26.1128   -8.4933 C   0  0  0  0  0  0  0  0  0  0  0  0
   10.2539  -24.0641  -10.2104 C   0  0  0  0  0  0  0  0  0  0  0  0
   10.2109  -27.7540   -9.4383 N   0  5  0  0  0  0  0  0  0  0  0  0
    9.9530  -25.4603   -9.9986 N   0  0  3  0  0  0  0  0  0  0  0  0
    5.0551  -30.9179   -8.7350 H   0  0  0  0  0  0  0  0  0  0  0  0
    4.1108  -23.4355  -10.5176 H   0  0  0  0  0  0  0  0  0  0  0  0
    5.1952  -28.8929   -7.3080 H   0  0  0  0  0  0  0  0  0  0  0  0
    6.7138  -31.2773  -10.5447 H   0  0  0  0  0  0  0  0  0  0  0  0
    4.6409  -25.3849  -11.9580 H   0  0  0  0  0  0  0  0  0  0  0  0
    5.7210  -22.7047   -8.7773 H   0  0  0  0  0  0  0  0  0  0  0  0
    6.9803  -27.2313   -7.6827 H   0  0  0  0  0  0  0  0  0  0  0  0
    8.5052  -29.6260  -10.9330 H   0  0  0  0  0  0  0  0  0  0  0  0
    6.7667  -26.6030  -11.6656 H   0  0  0  0  0  0  0  0  0  0  0  0
    7.8512  -23.9112   -8.4714 H   0  0  0  0  0  0  0  0  0  0  0  0
   10.5102  -27.9908  -11.9499 H   0  0  0  0  0  0  0  0  0  0  0  0
   11.7145  -27.2490  -13.0201 H   0  0  0  0  0  0  0  0  0  0  0  0
   10.3490  -26.2818  -12.3968 H   0  0  0  0  0  0  0  0  0  0  0  0
   10.2400  -25.0993   -7.4980 H   0  0  0  0  0  0  0  0  0  0  0  0
   11.5590  -25.6071   -6.4265 H   0  0  0  0  0  0  0  0  0  0  0  0
   10.3952  -26.8087   -7.0511 H   0  0  0  0  0  0  0  0  0  0  0  0
    8.5560  -23.6951  -11.4386 H   0  0  0  0  0  0  0  0  0  0  0  0
    9.8902  -22.5049  -11.6112 H   0  0  0  0  0  0  0  0  0  0  0  0
   10.0513  -24.1447  -12.3266 H   0  0  0  0  0  0  0  0  0  0  0  0
   12.4359  -25.7878  -11.1483 H   0  0  0  0  0  0  0  0  0  0  0  0
   12.5940  -27.4965  -10.7340 H   0  0  0  0  0  0  0  0  0  0  0  0
   12.5386  -26.9107   -8.2975 H   0  0  0  0  0  0  0  0  0  0  0  0
   12.3803  -25.2020   -8.7119 H   0  0  0  0  0  0  0  0  0  0  0  0
   11.3452  -23.9355  -10.2595 H   0  0  0  0  0  0  0  0  0  0  0  0
    9.8532  -23.4789   -9.3696 H   0  0  0  0  0  0  0  0  0  0  0  0
  1  3  1  0  0  0  0
  1  4  2  0  0  0  0
  2  5  1  0  0  0  0
  2  6  2  0  0  0  0
  3  7  2  0  0  0  0
  4  8  1  0  0  0  0
  5  9  2  0  0  0  0
  6 10  1  0  0  0  0
  7 11  1  0  0  0  0
  8 11  2  0  0  0  0
  9 12  1  0  0  0  0
 10 12  2  0  0  0  0
 11 13  1  0  0  0  0
 12 14  1  0  0  0  0
 13 14  2  0  0  0  0
 13 22  1  0  0  0  0
 14 23  1  0  0  0  0
 15 19  1  0  0  0  0
 15 20  1  0  0  0  0
 15 22  1  0  0  0  0
 15 23  1  0  0  0  0
 16 19  1  0  0  0  0
 17 20  1  0  0  0  0
 18 21  1  0  0  0  0
 21 23  1  0  0  0  0
  1 24  1  0  0  0  0
  2 25  1  0  0  0  0
  3 26  1  0  0  0  0
  4 27  1  0  0  0  0
  5 28  1  0  0  0  0
  6 29  1  0  0  0  0
  7 30  1  0  0  0  0
  8 31  1  0  0  0  0
  9 32  1  0  0  0  0
 10 33  1  0  0  0  0
 16 34  1  0  0  0  0
 16 35  1  0  0  0  0
 16 36  1  0  0  0  0
 17 37  1  0  0  0  0
 17 38  1  0  0  0  0
 17 39  1  0  0  0  0
 18 40  1  0  0  0  0
 18 41  1  0  0  0  0
 18 42  1  0  0  0  0
 19 43  1  0  0  0  0
 19 44  1  0  0  0  0
 20 45  1  0  0  0  0
 20 46  1  0  0  0  0
 21 47  1  0  0  0  0
 21 48  1  0  0  0  0
M  CHG  1  22  -1
M  END
> <Hybrid2>
-5.372701168060303

> <Hybrid2>
-4.725279

$$$$
C43465369
  -OEChem-02152218513D

 53 55  0     1  0  0  0  0  0999 V2000
    4.2695  -28.4548   -8.7253 C   0  0  0  0  0  0  0  0  0  0  0  0
    4.9318  -27.5601   -9.4665 C   0  0  0  0  0  0  0  0  0  0  0  0
   13.1926  -27.7510  -12.0974 C   0  0  0  0  0  0  0  0  0  0  0  0
   11.8325  -24.3789  -11.2438 C   0  0  0  0  0  0  0  0  0  0  0  0
    8.7988  -28.5075  -11.2412 C   0  0  0  0  0  0  0  0  0  0  0  0
   10.2072  -28.3382  -11.8085 C   0  0  0  0  0  0  0  0  0  0  0  0
    8.1884  -25.5900  -10.1340 C   0  0  0  0  0  0  0  0  0  0  0  0
    6.7420  -26.0750  -10.2455 C   0  0  0  0  0  0  0  0  0  0  0  0
   12.8233  -25.3776  -11.8232 C   0  0  0  0  0  0  0  0  0  0  0  0
   11.1315  -24.9338  -10.0049 C   0  0  0  0  0  0  0  0  0  0  0  0
    7.2986  -28.3129   -9.1842 C   0  0  0  0  0  0  0  0  0  0  0  0
    8.7077  -28.0695   -9.7710 C   0  0  2  0  0  0  0  0  0  0  0  0
    9.2063  -26.6211   -9.5810 C   0  0  1  0  0  0  0  0  0  0  0  0
   10.7512  -26.9049  -11.6246 C   0  0  2  0  0  0  0  0  0  0  0  0
    6.3410  -27.0961   -9.1742 C   0  0  2  0  0  0  0  0  0  0  0  0
   12.1311  -26.6693  -12.3045 C   0  0  2  0  0  0  0  0  0  0  0  0
   10.6789  -26.4262  -10.1315 C   0  0  1  0  0  0  0  0  0  0  0  0
    6.3255  -26.4379   -7.7791 C   0  0  0  0  0  0  0  0  0  0  0  0
   11.9940  -26.6512  -13.8372 C   0  0  0  0  0  0  0  0  0  0  0  0
   11.6408  -27.2545   -9.2311 C   0  0  0  0  0  0  0  0  0  0  0  0
   12.8447  -28.9181  -12.4290 O   0  5  0  0  0  0  0  0  0  0  0  0
   14.2854  -27.3359  -11.6192 O   0  0  0  0  0  0  0  0  0  0  0  0
    3.2588  -28.7461   -8.9890 H   0  0  0  0  0  0  0  0  0  0  0  0
    4.7186  -28.9098   -7.8492 H   0  0  0  0  0  0  0  0  0  0  0  0
    4.4390  -27.1321  -10.3350 H   0  0  0  0  0  0  0  0  0  0  0  0
   12.3597  -23.4517  -10.9727 H   0  0  0  0  0  0  0  0  0  0  0  0
   11.0892  -24.0926  -12.0037 H   0  0  0  0  0  0  0  0  0  0  0  0
    8.1169  -27.9333  -11.8701 H   0  0  0  0  0  0  0  0  0  0  0  0
    8.5011  -29.5569  -11.3319 H   0  0  0  0  0  0  0  0  0  0  0  0
   10.8680  -29.0764  -11.3395 H   0  0  0  0  0  0  0  0  0  0  0  0
   10.1711  -28.5988  -12.8729 H   0  0  0  0  0  0  0  0  0  0  0  0
    8.5203  -25.2004  -11.1258 H   0  0  0  0  0  0  0  0  0  0  0  0
    8.1638  -24.6773   -9.4978 H   0  0  0  0  0  0  0  0  0  0  0  0
    6.0819  -25.1951  -10.1821 H   0  0  0  0  0  0  0  0  0  0  0  0
    6.5835  -26.4893  -11.2536 H   0  0  0  0  0  0  0  0  0  0  0  0
   13.3637  -24.8967  -12.6475 H   0  0  0  0  0  0  0  0  0  0  0  0
   13.5818  -25.5889  -11.0597 H   0  0  0  0  0  0  0  0  0  0  0  0
   11.8246  -24.8238   -9.1575 H   0  0  0  0  0  0  0  0  0  0  0  0
   10.3083  -24.2633   -9.7440 H   0  0  0  0  0  0  0  0  0  0  0  0
    6.8307  -29.1638   -9.6973 H   0  0  0  0  0  0  0  0  0  0  0  0
    7.4428  -28.6410   -8.1445 H   0  0  0  0  0  0  0  0  0  0  0  0
    9.3694  -28.7458   -9.2124 H   0  0  0  0  0  0  0  0  0  0  0  0
    9.2655  -26.4279   -8.4877 H   0  0  0  0  0  0  0  0  0  0  0  0
   10.0497  -26.2608  -12.1815 H   0  0  0  0  0  0  0  0  0  0  0  0
    7.3245  -26.0925   -7.5372 H   0  0  0  0  0  0  0  0  0  0  0  0
    6.0018  -27.1674   -7.0449 H   0  0  0  0  0  0  0  0  0  0  0  0
    5.6394  -25.5982   -7.7893 H   0  0  0  0  0  0  0  0  0  0  0  0
   11.2551  -25.9095  -14.1209 H   0  0  0  0  0  0  0  0  0  0  0  0
   11.6788  -27.6312  -14.1791 H   0  0  0  0  0  0  0  0  0  0  0  0
   12.9527  -26.4003  -14.2785 H   0  0  0  0  0  0  0  0  0  0  0  0
   11.3549  -28.2926   -9.2960 H   0  0  0  0  0  0  0  0  0  0  0  0
   11.5471  -26.8971   -8.2177 H   0  0  0  0  0  0  0  0  0  0  0  0
   12.6474  -27.1140   -9.5925 H   0  0  0  0  0  0  0  0  0  0  0  0
  1  2  2  0  0  0  0
  2 15  1  0  0  0  0
  3 16  1  0  0  0  0
  3 21  1  0  0  0  0
  3 22  2  0  0  0  0
  4  9  1  0  0  0  0
  4 10  1  0  0  0  0
  5  6  1  0  0  0  0
  5 12  1  0  0  0  0
  6 14  1  0  0  0  0
  7  8  1  0  0  0  0
  7 13  1  0  0  0  0
  8 15  1  0  0  0  0
  9 16  1  0  0  0  0
 10 17  1  0  0  0  0
 11 12  1  0  0  0  0
 11 15  1  0  0  0  0
 12 13  1  0  0  0  0
 13 17  1  0  0  0  0
 14 16  1  0  0  0  0
 14 17  1  0  0  0  0
 15 18  1  0  0  0  0
 16 19  1  0  0  0  0
 17 20  1  0  0  0  0
  1 23  1  0  0  0  0
  1 24  1  0  0  0  0
  2 25  1  0  0  0  0
  4 26  1  0  0  0  0
  4 27  1  0  0  0  0
  5 28  1  0  0  0  0
  5 29  1  0  0  0  0
  6 30  1  0  0  0  0
  6 31  1  0  0  0  0
  7 32  1  0  0  0  0
  7 33  1  0  0  0  0
  8 34  1  0  0  0  0
  8 35  1  0  0  0  0
  9 36  1  0  0  0  0
  9 37  1  0  0  0  0
 10 38  1  0  0  0  0
 10 39  1  0  0  0  0
 11 40  1  0  0  0  0
 11 41  1  0  0  0  0
 12 42  1  0  0  0  0
 13 43  1  0  0  0  0
 14 44  1  0  0  0  0
 18 45  1  0  0  0  0
 18 46  1  0  0  0  0
 18 47  1  0  0  0  0
 19 48  1  0  0  0  0
 19 49  1  0  0  0  0
 19 50  1  0  0  0  0
 20 51  1  0  0  0  0
 20 52  1  0  0  0  0
 20 53  1  0  0  0  0
M  CHG  1  21  -1
M  END
> <Hybrid2>
-3.911714553833008

> <Hybrid2>
-3.911715

$$$$
C43465369
  -OEChem-02152218513D

 53 55  0     1  0  0  0  0  0999 V2000
   13.8961  -27.5999  -11.3602 C   0  0  0  0  0  0  0  0  0  0  0  0
   13.1284  -26.5059  -11.4053 C   0  0  0  0  0  0  0  0  0  0  0  0
    6.2295  -28.2376   -9.1250 C   0  0  0  0  0  0  0  0  0  0  0  0
    6.9174  -24.5512   -9.4744 C   0  0  0  0  0  0  0  0  0  0  0  0
   10.3231  -28.0822  -10.8912 C   0  0  0  0  0  0  0  0  0  0  0  0
    9.0529  -28.2495  -10.0594 C   0  0  0  0  0  0  0  0  0  0  0  0
   10.3552  -24.9723  -11.4058 C   0  0  0  0  0  0  0  0  0  0  0  0
   11.5620  -24.7791  -12.3300 C   0  0  0  0  0  0  0  0  0  0  0  0
    6.2012  -25.7650   -8.8973 C   0  0  0  0  0  0  0  0  0  0  0  0
    7.3086  -24.7973  -10.9283 C   0  0  0  0  0  0  0  0  0  0  0  0
   11.3520  -27.1862  -13.0653 C   0  0  0  0  0  0  0  0  0  0  0  0
   10.0717  -27.3476  -12.2164 C   0  0  2  0  0  0  0  0  0  0  0  0
    9.3509  -25.9916  -11.9986 C   0  0  1  0  0  0  0  0  0  0  0  0
    8.3229  -26.9070   -9.8250 C   0  0  2  0  0  0  0  0  0  0  0  0
   12.3350  -26.0810  -12.6151 C   0  0  2  0  0  0  0  0  0  0  0  0
    7.1061  -27.0119   -8.8574 C   0  0  2  0  0  0  0  0  0  0  0  0
    8.0110  -26.1725  -11.1764 C   0  0  1  0  0  0  0  0  0  0  0  0
   13.3541  -25.8241  -13.7413 C   0  0  0  0  0  0  0  0  0  0  0  0
    7.5706  -27.2670   -7.4121 C   0  0  0  0  0  0  0  0  0  0  0  0
    7.0192  -27.0013  -12.0467 C   0  0  0  0  0  0  0  0  0  0  0  0
    6.8359  -29.3446   -9.1238 O   0  5  0  0  0  0  0  0  0  0  0  0
    5.0068  -27.9834   -9.3136 O   0  0  0  0  0  0  0  0  0  0  0  0
   14.4425  -27.8507  -10.4576 H   0  0  0  0  0  0  0  0  0  0  0  0
   13.9936  -28.2606  -12.2147 H   0  0  0  0  0  0  0  0  0  0  0  0
   13.0631  -25.8752  -10.5231 H   0  0  0  0  0  0  0  0  0  0  0  0
    6.2591  -23.6761   -9.4211 H   0  0  0  0  0  0  0  0  0  0  0  0
    7.8045  -24.3109   -8.8764 H   0  0  0  0  0  0  0  0  0  0  0  0
   11.0547  -27.5525  -10.2754 H   0  0  0  0  0  0  0  0  0  0  0  0
   10.7494  -29.0723  -11.0941 H   0  0  0  0  0  0  0  0  0  0  0  0
    8.3986  -28.9747  -10.5543 H   0  0  0  0  0  0  0  0  0  0  0  0
    9.3375  -28.7000   -9.1024 H   0  0  0  0  0  0  0  0  0  0  0  0
   10.6972  -25.2788  -10.4123 H   0  0  0  0  0  0  0  0  0  0  0  0
    9.8966  -23.9890  -11.2764 H   0  0  0  0  0  0  0  0  0  0  0  0
   11.2027  -24.3514  -13.2761 H   0  0  0  0  0  0  0  0  0  0  0  0
   12.2284  -24.0241  -11.8921 H   0  0  0  0  0  0  0  0  0  0  0  0
    5.8419  -25.5127   -7.8916 H   0  0  0  0  0  0  0  0  0  0  0  0
    5.2972  -25.9426   -9.4936 H   0  0  0  0  0  0  0  0  0  0  0  0
    6.3930  -24.7308  -11.5326 H   0  0  0  0  0  0  0  0  0  0  0  0
    7.9036  -23.9502  -11.2758 H   0  0  0  0  0  0  0  0  0  0  0  0
   11.8683  -28.1532  -13.1358 H   0  0  0  0  0  0  0  0  0  0  0  0
   11.0237  -26.9544  -14.0891 H   0  0  0  0  0  0  0  0  0  0  0  0
    9.4149  -27.9945  -12.8119 H   0  0  0  0  0  0  0  0  0  0  0  0
    9.0684  -25.6061  -12.9897 H   0  0  0  0  0  0  0  0  0  0  0  0
    9.0524  -26.2738   -9.2988 H   0  0  0  0  0  0  0  0  0  0  0  0
   12.8254  -25.5144  -14.6360 H   0  0  0  0  0  0  0  0  0  0  0  0
   13.9048  -26.7372  -13.9382 H   0  0  0  0  0  0  0  0  0  0  0  0
   14.0386  -25.0424  -13.4305 H   0  0  0  0  0  0  0  0  0  0  0  0
    8.2132  -26.4527   -7.0946 H   0  0  0  0  0  0  0  0  0  0  0  0
    8.1187  -28.2022   -7.3731 H   0  0  0  0  0  0  0  0  0  0  0  0
    6.7033  -27.3234   -6.7630 H   0  0  0  0  0  0  0  0  0  0  0  0
    7.4649  -27.9637  -12.2437 H   0  0  0  0  0  0  0  0  0  0  0  0
    6.8483  -26.4659  -12.9674 H   0  0  0  0  0  0  0  0  0  0  0  0
    6.0987  -27.1141  -11.4957 H   0  0  0  0  0  0  0  0  0  0  0  0
  1  2  2  0  0  0  0
  2 15  1  0  0  0  0
  3 16  1  0  0  0  0
  3 21  1  0  0  0  0
  3 22  2  0  0  0  0
  4  9  1  0  0  0  0
  4 10  1  0  0  0  0
  5  6  1  0  0  0  0
  5 12  1  0  0  0  0
  6 14  1  0  0  0  0
  7  8  1  0  0  0  0
  7 13  1  0  0  0  0
  8 15  1  0  0  0  0
  9 16  1  0  0  0  0
 10 17  1  0  0  0  0
 11 12  1  0  0  0  0
 11 15  1  0  0  0  0
 12 13  1  0  0  0  0
 13 17  1  0  0  0  0
 14 16  1  0  0  0  0
 14 17  1  0  0  0  0
 15 18  1  0  0  0  0
 16 19  1  0  0  0  0
 17 20  1  0  0  0  0
  1 23  1  0  0  0  0
  1 24  1  0  0  0  0
  2 25  1  0  0  0  0
  4 26  1  0  0  0  0
  4 27  1  0  0  0  0
  5 28  1  0  0  0  0
  5 29  1  0  0  0  0
  6 30  1  0  0  0  0
  6 31  1  0  0  0  0
  7 32  1  0  0  0  0
  7 33  1  0  0  0  0
  8 34  1  0  0  0  0
  8 35  1  0  0  0  0
  9 36  1  0  0  0  0
  9 37  1  0  0  0  0
 10 38  1  0  0  0  0
 10 39  1  0  0  0  0
 11 40  1  0  0  0  0
 11 41  1  0  0  0  0
 12 42  1  0  0  0  0
 13 43  1  0  0  0  0
 14 44  1  0  0  0  0
 18 45  1  0  0  0  0
 18 46  1  0  0  0  0
 18 47  1  0  0  0  0
 19 48  1  0  0  0  0
 19 49  1  0  0  0  0
 19 50  1  0  0  0  0
 20 51  1  0  0  0  0
 20 52  1  0  0  0  0
 20 53  1  0  0  0  0
M  CHG  1  21  -1
M  END
> <Hybrid2>
-3.911714553833008

> <Hybrid2>
-3.910473

$$$$
C43919788
  -OEChem-02152218513D

 53 56  0     1  0  0  0  0  0999 V2000
    3.8443  -29.4236   -8.6896 C   0  0  0  0  0  0  0  0  0  0  0  0
    3.0510  -28.2983   -8.6178 C   0  0  0  0  0  0  0  0  0  0  0  0
    5.1528  -28.9660   -8.9835 C   0  0  0  0  0  0  0  0  0  0  0  0
    5.0467  -27.6027   -9.0871 C   0  0  0  0  0  0  0  0  0  0  0  0
   13.3737  -26.7610  -12.4200 C   0  0  0  0  0  0  0  0  0  0  0  0
    6.1155  -26.6289   -9.3640 C   0  0  0  0  0  0  0  0  0  0  0  0
    9.4739  -24.6689  -11.9410 C   0  0  0  0  0  0  0  0  0  0  0  0
    8.7873  -29.4419  -10.1129 C   0  0  0  0  0  0  0  0  0  0  0  0
    9.5917  -28.5699  -11.0724 C   0  0  0  0  0  0  0  0  0  0  0  0
    8.2925  -25.4696  -11.4237 C   0  0  0  0  0  0  0  0  0  0  0  0
   10.6088  -25.5961  -12.3425 C   0  0  0  0  0  0  0  0  0  0  0  0
    6.4327  -29.6939   -9.2214 C   0  0  1  0  0  0  0  0  0  0  0  0
    7.3244  -27.3446  -10.0445 C   0  0  2  0  0  0  0  0  0  0  0  0
    7.6596  -28.7093   -9.3599 C   0  0  2  0  0  0  0  0  0  0  0  0
    9.9435  -27.2162  -10.4318 C   0  0  2  0  0  0  0  0  0  0  0  0
    8.6030  -26.3906  -10.2101 C   0  0  1  0  0  0  0  0  0  0  0  0
   11.1278  -26.4588  -11.1763 C   0  0  2  0  0  0  0  0  0  0  0  0
    6.7056  -30.7449   -8.1401 C   0  0  0  0  0  0  0  0  0  0  0  0
    8.7718  -25.5157   -8.9427 C   0  0  0  0  0  0  0  0  0  0  0  0
   11.9311  -25.5686  -10.1931 C   0  0  0  0  0  0  0  0  0  0  0  0
   12.1799  -27.4367  -11.7622 C   0  0  0  0  0  0  0  0  0  0  0  0
   13.1454  -26.0118  -13.4088 O   0  5  0  0  0  0  0  0  0  0  0  0
   14.4761  -27.0483  -11.8694 O   0  0  0  0  0  0  0  0  0  0  0  0
    3.7828  -27.1756   -8.8587 O   0  0  0  0  0  0  0  0  0  0  0  0
    3.5138  -30.4424   -8.5481 H   0  0  0  0  0  0  0  0  0  0  0  0
    2.0014  -28.1366   -8.4208 H   0  0  0  0  0  0  0  0  0  0  0  0
    5.7208  -25.8392  -10.0136 H   0  0  0  0  0  0  0  0  0  0  0  0
    6.4068  -26.1694   -8.4134 H   0  0  0  0  0  0  0  0  0  0  0  0
    9.1792  -24.0198  -12.7762 H   0  0  0  0  0  0  0  0  0  0  0  0
    9.8276  -23.9971  -11.1452 H   0  0  0  0  0  0  0  0  0  0  0  0
    8.3685  -30.2976  -10.6464 H   0  0  0  0  0  0  0  0  0  0  0  0
    9.4936  -29.8655   -9.3903 H   0  0  0  0  0  0  0  0  0  0  0  0
   10.5050  -29.0924  -11.3139 H   0  0  0  0  0  0  0  0  0  0  0  0
    9.0425  -28.4462  -11.9878 H   0  0  0  0  0  0  0  0  0  0  0  0
    7.5009  -24.7539  -11.1369 H   0  0  0  0  0  0  0  0  0  0  0  0
    7.8506  -26.0418  -12.2537 H   0  0  0  0  0  0  0  0  0  0  0  0
   10.2753  -26.2288  -13.1753 H   0  0  0  0  0  0  0  0  0  0  0  0
   11.4281  -24.9832  -12.7435 H   0  0  0  0  0  0  0  0  0  0  0  0
    6.3183  -30.2302  -10.1813 H   0  0  0  0  0  0  0  0  0  0  0  0
    6.9804  -27.5883  -11.0642 H   0  0  0  0  0  0  0  0  0  0  0  0
    8.0297  -28.4990   -8.3450 H   0  0  0  0  0  0  0  0  0  0  0  0
   10.3248  -27.4334   -9.4605 H   0  0  0  0  0  0  0  0  0  0  0  0
    6.8242  -30.2533   -7.1783 H   0  0  0  0  0  0  0  0  0  0  0  0
    7.6149  -31.2877   -8.3834 H   0  0  0  0  0  0  0  0  0  0  0  0
    5.8715  -31.4396   -8.0909 H   0  0  0  0  0  0  0  0  0  0  0  0
    8.9864  -26.1666   -8.1103 H   0  0  0  0  0  0  0  0  0  0  0  0
    7.8513  -24.9786   -8.7792 H   0  0  0  0  0  0  0  0  0  0  0  0
    9.5878  -24.8315   -9.1120 H   0  0  0  0  0  0  0  0  0  0  0  0
   12.2872  -26.1878   -9.3829 H   0  0  0  0  0  0  0  0  0  0  0  0
   11.2764  -24.7961   -9.8174 H   0  0  0  0  0  0  0  0  0  0  0  0
   12.7621  -25.1318  -10.7272 H   0  0  0  0  0  0  0  0  0  0  0  0
   11.6787  -28.0650  -12.4970 H   0  0  0  0  0  0  0  0  0  0  0  0
   12.5338  -28.0716  -10.9513 H   0  0  0  0  0  0  0  0  0  0  0  0
  1  2  2  0  0  0  0
  1  3  1  0  0  0  0
  2 24  1  0  0  0  0
  3  4  2  0  0  0  0
  3 12  1  0  0  0  0
  4  6  1  0  0  0  0
  4 24  1  0  0  0  0
  5 21  1  0  0  0  0
  5 22  1  0  0  0  0
  5 23  2  0  0  0  0
  6 13  1  0  0  0  0
  7 10  1  0  0  0  0
  7 11  1  0  0  0  0
  8  9  1  0  0  0  0
  8 14  1  0  0  0  0
  9 15  1  0  0  0  0
 10 16  1  0  0  0  0
 11 17  1  0  0  0  0
 12 14  1  0  0  0  0
 12 18  1  0  0  0  0
 13 14  1  0  0  0  0
 13 16  1  0  0  0  0
 15 16  1  0  0  0  0
 15 17  1  0  0  0  0
 16 19  1  0  0  0  0
 17 20  1  0  0  0  0
 17 21  1  0  0  0  0
  1 25  1  0  0  0  0
  2 26  1  0  0  0  0
  6 27  1  0  0  0  0
  6 28  1  0  0  0  0
  7 29  1  0  0  0  0
  7 30  1  0  0  0  0
  8 31  1  0  0  0  0
  8 32  1  0  0  0  0
  9 33  1  0  0  0  0
  9 34  1  0  0  0  0
 10 35  1  0  0  0  0
 10 36  1  0  0  0  0
 11 37  1  0  0  0  0
 11 38  1  0  0  0  0
 12 39  1  0  0  0  0
 13 40  1  0  0  0  0
 14 41  1  0  0  0  0
 15 42  1  0  0  0  0
 18 43  1  0  0  0  0
 18 44  1  0  0  0  0
 18 45  1  0  0  0  0
 19 46  1  0  0  0  0
 19 47  1  0  0  0  0
 19 48  1  0  0  0  0
 20 49  1  0  0  0  0
 20 50  1  0  0  0  0
 20 51  1  0  0  0  0
 21 52  1  0  0  0  0
 21 53  1  0  0  0  0
M  CHG  1  22  -1
M  END
> <Hybrid2>
-5.056726932525635

> <Hybrid2>
-5.056727

$$$$
C43919788
  -OEChem-02152218513D

 53 56  0     1  0  0  0  0  0999 V2000
    3.9446  -28.5479   -9.1718 C   0  0  0  0  0  0  0  0  0  0  0  0
    3.3613  -27.3012   -9.0930 C   0  0  0  0  0  0  0  0  0  0  0  0
    5.3432  -28.3265   -9.2279 C   0  0  0  0  0  0  0  0  0  0  0  0
    5.4971  -26.9641   -9.1995 C   0  0  0  0  0  0  0  0  0  0  0  0
   14.2627  -27.4657  -11.2165 C   0  0  0  0  0  0  0  0  0  0  0  0
    6.7512  -26.1932   -9.2176 C   0  0  0  0  0  0  0  0  0  0  0  0
   10.7677  -24.7128  -11.0717 C   0  0  0  0  0  0  0  0  0  0  0  0
    8.9687  -29.3961   -9.8779 C   0  0  0  0  0  0  0  0  0  0  0  0
   10.0560  -28.6207  -10.6160 C   0  0  0  0  0  0  0  0  0  0  0  0
    9.3967  -25.3118  -10.8145 C   0  0  0  0  0  0  0  0  0  0  0  0
   11.7700  -25.8048  -11.4057 C   0  0  0  0  0  0  0  0  0  0  0  0
    6.4957  -29.2640   -9.3593 C   0  0  1  0  0  0  0  0  0  0  0  0
    7.9070  -27.0704   -9.7933 C   0  0  2  0  0  0  0  0  0  0  0  0
    7.8833  -28.5235   -9.2176 C   0  0  2  0  0  0  0  0  0  0  0  0
   10.5354  -27.4136   -9.7916 C   0  0  2  0  0  0  0  0  0  0  0  0
    9.3437  -26.3676   -9.6743 C   0  0  1  0  0  0  0  0  0  0  0  0
   11.9374  -26.8397  -10.2767 C   0  0  2  0  0  0  0  0  0  0  0  0
    6.4042  -30.4295   -8.3685 C   0  0  0  0  0  0  0  0  0  0  0  0
    9.4616  -25.6434   -8.3098 C   0  0  0  0  0  0  0  0  0  0  0  0
   12.7194  -26.1991   -9.1008 C   0  0  0  0  0  0  0  0  0  0  0  0
   12.8796  -27.9510  -10.8094 C   0  0  0  0  0  0  0  0  0  0  0  0
   14.3297  -26.6113  -12.1421 O   0  5  0  0  0  0  0  0  0  0  0  0
   15.1958  -28.0002  -10.5498 O   0  0  0  0  0  0  0  0  0  0  0  0
    4.3085  -26.3232   -9.1073 O   0  0  0  0  0  0  0  0  0  0  0  0
    3.4213  -29.4929   -9.1878 H   0  0  0  0  0  0  0  0  0  0  0  0
    2.3390  -26.9584   -9.0298 H   0  0  0  0  0  0  0  0  0  0  0  0
    6.6099  -25.2941   -9.8284 H   0  0  0  0  0  0  0  0  0  0  0  0
    6.9649  -25.8739   -8.1919 H   0  0  0  0  0  0  0  0  0  0  0  0
   10.7281  -23.9558  -11.8661 H   0  0  0  0  0  0  0  0  0  0  0  0
   11.1040  -24.1854  -10.1669 H   0  0  0  0  0  0  0  0  0  0  0  0
    8.4952  -30.1116  -10.5533 H   0  0  0  0  0  0  0  0  0  0  0  0
    9.4658  -30.0021   -9.1123 H   0  0  0  0  0  0  0  0  0  0  0  0
   10.8892  -29.2871  -10.7807 H   0  0  0  0  0  0  0  0  0  0  0  0
    9.6891  -28.3230  -11.5812 H   0  0  0  0  0  0  0  0  0  0  0  0
    8.7086  -24.4831  -10.5674 H   0  0  0  0  0  0  0  0  0  0  0  0
    8.9977  -25.7221  -11.7546 H   0  0  0  0  0  0  0  0  0  0  0  0
   11.4661  -26.2948  -12.3399 H   0  0  0  0  0  0  0  0  0  0  0  0
   12.7376  -25.3297  -11.6197 H   0  0  0  0  0  0  0  0  0  0  0  0
    6.4418  -29.6914  -10.3773 H   0  0  0  0  0  0  0  0  0  0  0  0
    7.6911  -27.1631  -10.8714 H   0  0  0  0  0  0  0  0  0  0  0  0
    8.1195  -28.4682   -8.1442 H   0  0  0  0  0  0  0  0  0  0  0  0
   10.7138  -27.7752   -8.8050 H   0  0  0  0  0  0  0  0  0  0  0  0
    6.4540  -30.0467   -7.3528 H   0  0  0  0  0  0  0  0  0  0  0  0
    7.2302  -31.1148   -8.5377 H   0  0  0  0  0  0  0  0  0  0  0  0
    5.4635  -30.9541   -8.5118 H   0  0  0  0  0  0  0  0  0  0  0  0
    9.4235  -26.3868   -7.5297 H   0  0  0  0  0  0  0  0  0  0  0  0
    8.6363  -24.9553   -8.2214 H   0  0  0  0  0  0  0  0  0  0  0  0
   10.4019  -25.1162   -8.2885 H   0  0  0  0  0  0  0  0  0  0  0  0
   12.8278  -26.9366   -8.3193 H   0  0  0  0  0  0  0  0  0  0  0  0
   12.1603  -25.3479   -8.7410 H   0  0  0  0  0  0  0  0  0  0  0  0
   13.6883  -25.8881   -9.4628 H   0  0  0  0  0  0  0  0  0  0  0  0
   12.3980  -28.4125  -11.6702 H   0  0  0  0  0  0  0  0  0  0  0  0
   12.9830  -28.7035  -10.0290 H   0  0  0  0  0  0  0  0  0  0  0  0
  1  2  2  0  0  0  0
  1  3  1  0  0  0  0
  2 24  1  0  0  0  0
  3  4  2  0  0  0  0
  3 12  1  0  0  0  0
  4  6  1  0  0  0  0
  4 24  1  0  0  0  0
  5 21  1  0  0  0  0
  5 22  1  0  0  0  0
  5 23  2  0  0  0  0
  6 13  1  0  0  0  0
  7 10  1  0  0  0  0
  7 11  1  0  0  0  0
  8  9  1  0  0  0  0
  8 14  1  0  0  0  0
  9 15  1  0  0  0  0
 10 16  1  0  0  0  0
 11 17  1  0  0  0  0
 12 14  1  0  0  0  0
 12 18  1  0  0  0  0
 13 14  1  0  0  0  0
 13 16  1  0  0  0  0
 15 16  1  0  0  0  0
 15 17  1  0  0  0  0
 16 19  1  0  0  0  0
 17 20  1  0  0  0  0
 17 21  1  0  0  0  0
  1 25  1  0  0  0  0
  2 26  1  0  0  0  0
  6 27  1  0  0  0  0
  6 28  1  0  0  0  0
  7 29  1  0  0  0  0
  7 30  1  0  0  0  0
  8 31  1  0  0  0  0
  8 32  1  0  0  0  0
  9 33  1  0  0  0  0
  9 34  1  0  0  0  0
 10 35  1  0  0  0  0
 10 36  1  0  0  0  0
 11 37  1  0  0  0  0
 11 38  1  0  0  0  0
 12 39  1  0  0  0  0
 13 40  1  0  0  0  0
 14 41  1  0  0  0  0
 15 42  1  0  0  0  0
 18 43  1  0  0  0  0
 18 44  1  0  0  0  0
 18 45  1  0  0  0  0
 19 46  1  0  0  0  0
 19 47  1  0  0  0  0
 19 48  1  0  0  0  0
 20 49  1  0  0  0  0
 20 50  1  0  0  0  0
 20 51  1  0  0  0  0
 21 52  1  0  0  0  0
 21 53  1  0  0  0  0
M  CHG  1  22  -1
M  END
> <Hybrid2>
-5.056726932525635

> <Hybrid2>
-3.453772

$$$$
C44223354
  -OEChem-02152218513D

 31 32  0     0  0  0  0  0  0999 V2000
    8.4862  -25.9999   -9.7382 C   0  0  0  0  0  0  0  0  0  0  0  0
    7.3851  -26.2652   -8.9241 C   0  0  0  0  0  0  0  0  0  0  0  0
   10.4920  -26.0509  -12.3462 C   0  0  0  0  0  0  0  0  0  0  0  0
   11.8626  -26.1762  -12.6765 C   0  0  0  0  0  0  0  0  0  0  0  0
    8.7552  -28.3660  -10.1456 C   0  0  0  0  0  0  0  0  0  0  0  0
    9.1712  -27.0503  -10.3491 C   0  0  0  0  0  0  0  0  0  0  0  0
    7.6541  -28.6314   -9.3314 C   0  0  0  0  0  0  0  0  0  0  0  0
    6.9691  -27.5809   -8.7206 C   0  0  0  0  0  0  0  0  0  0  0  0
   10.3097  -26.7755  -11.1913 C   0  0  0  0  0  0  0  0  0  0  0  0
   12.4201  -26.9681  -11.6998 C   0  0  0  0  0  0  0  0  0  0  0  0
   13.7694  -27.3780  -11.5950 C   0  0  0  0  0  0  0  0  0  0  0  0
   14.4712  -27.6533  -10.4439 C   0  0  0  0  0  0  0  0  0  0  0  0
   15.9460  -28.0693  -10.5862 C   0  0  0  0  0  0  0  0  0  0  0  0
   13.9148  -27.6039   -9.0531 C   0  0  0  0  0  0  0  0  0  0  0  0
    7.2109  -30.0393   -9.1163 C   0  0  0  0  0  0  0  0  0  0  0  0
   16.6881  -27.2108  -11.1454 O   0  5  0  0  0  0  0  0  0  0  0  0
   16.2453  -29.2045  -10.1162 O   0  0  0  0  0  0  0  0  0  0  0  0
   11.4802  -27.3376  -10.7907 O   0  0  0  0  0  0  0  0  0  0  0  0
    5.9114  -27.8262   -7.9349 F   0  0  0  0  0  0  0  0  0  0  0  0
    7.9740  -30.9601   -9.7762 F   0  0  0  0  0  0  0  0  0  0  0  0
    7.2382  -30.4268   -7.8069 F   0  0  0  0  0  0  0  0  0  0  0  0
    5.9305  -30.2565   -9.5360 F   0  0  0  0  0  0  0  0  0  0  0  0
    8.7983  -24.9688   -9.8871 H   0  0  0  0  0  0  0  0  0  0  0  0
    6.8506  -25.4481   -8.4485 H   0  0  0  0  0  0  0  0  0  0  0  0
    9.7353  -25.4996  -12.8864 H   0  0  0  0  0  0  0  0  0  0  0  0
   12.3720  -25.7391  -13.5242 H   0  0  0  0  0  0  0  0  0  0  0  0
    9.2851  -29.1902  -10.6192 H   0  0  0  0  0  0  0  0  0  0  0  0
   14.3298  -27.4940  -12.5476 H   0  0  0  0  0  0  0  0  0  0  0  0
   13.5058  -28.5818   -8.7769 H   0  0  0  0  0  0  0  0  0  0  0  0
   13.1031  -26.8790   -8.9455 H   0  0  0  0  0  0  0  0  0  0  0  0
   14.7022  -27.3465   -8.3377 H   0  0  0  0  0  0  0  0  0  0  0  0
  1  2  2  0  0  0  0
  1  6  1  0  0  0  0
  2  8  1  0  0  0  0
  3  4  1  0  0  0  0
  3  9  2  0  0  0  0
  4 10  2  0  0  0  0
  5  6  2  0  0  0  0
  5  7  1  0  0  0  0
  6  9  1  0  0  0  0
  7  8  2  0  0  0  0
  7 15  1  0  0  0  0
  8 19  1  0  0  0  0
  9 18  1  0  0  0  0
 10 11  1  0  0  0  0
 10 18  1  0  0  0  0
 11 12  2  0  0  0  0
 12 13  1  0  0  0  0
 12 14  1  0  0  0  0
 13 16  1  0  0  0  0
 13 17  2  0  0  0  0
 15 20  1  0  0  0  0
 15 21  1  0  0  0  0
 15 22  1  0  0  0  0
  1 23  1  0  0  0  0
  2 24  1  0  0  0  0
  3 25  1  0  0  0  0
  4 26  1  0  0  0  0
  5 27  1  0  0  0  0
 11 28  1  0  0  0  0
 14 29  1  0  0  0  0
 14 30  1  0  0  0  0
 14 31  1  0  0  0  0
M  CHG  1  16  -1
M  END
> <Hybrid2>
-5.601716041564941

> <Hybrid2>
-5.601716

$$$$
C44223354
  -OEChem-02152218513D

 31 32  0     0  0  0  0  0  0999 V2000
    6.2865  -25.7511   -9.3768 C   0  0  0  0  0  0  0  0  0  0  0  0
    5.2175  -26.5877   -9.0561 C   0  0  0  0  0  0  0  0  0  0  0  0
    8.7875  -24.0687  -10.1167 C   0  0  0  0  0  0  0  0  0  0  0  0
   10.1354  -23.8477  -10.4876 C   0  0  0  0  0  0  0  0  0  0  0  0
    7.7068  -27.6818   -9.6798 C   0  0  0  0  0  0  0  0  0  0  0  0
    7.5312  -26.2981   -9.6887 C   0  0  0  0  0  0  0  0  0  0  0  0
    6.6379  -28.5186   -9.3591 C   0  0  0  0  0  0  0  0  0  0  0  0
    5.3932  -27.9715   -9.0472 C   0  0  0  0  0  0  0  0  0  0  0  0
    8.6364  -25.4325  -10.0207 C   0  0  0  0  0  0  0  0  0  0  0  0
   10.7120  -25.0922  -10.5915 C   0  0  0  0  0  0  0  0  0  0  0  0
   12.0499  -25.3909  -10.9384 C   0  0  0  0  0  0  0  0  0  0  0  0
   12.5138  -26.5129  -11.5858 C   0  0  0  0  0  0  0  0  0  0  0  0
   14.0280  -26.6192  -11.8394 C   0  0  0  0  0  0  0  0  0  0  0  0
   11.6642  -27.6405  -12.0891 C   0  0  0  0  0  0  0  0  0  0  0  0
    6.8284  -29.9979   -9.3511 C   0  0  0  0  0  0  0  0  0  0  0  0
   14.5141  -25.6898  -12.5468 O   0  5  0  0  0  0  0  0  0  0  0  0
   14.6081  -27.6057  -11.3015 O   0  0  0  0  0  0  0  0  0  0  0  0
    9.8049  -26.0636  -10.3084 O   0  0  0  0  0  0  0  0  0  0  0  0
    4.3608  -28.7674   -8.7356 F   0  0  0  0  0  0  0  0  0  0  0  0
    8.0963  -30.3882   -9.6764 F   0  0  0  0  0  0  0  0  0  0  0  0
    6.5782  -30.5747   -8.1386 F   0  0  0  0  0  0  0  0  0  0  0  0
    6.0101  -30.6373  -10.2367 F   0  0  0  0  0  0  0  0  0  0  0  0
    6.1338  -24.6744   -9.3794 H   0  0  0  0  0  0  0  0  0  0  0  0
    4.2478  -26.1630   -8.8137 H   0  0  0  0  0  0  0  0  0  0  0  0
    8.0249  -23.3228   -9.9423 H   0  0  0  0  0  0  0  0  0  0  0  0
   10.6180  -22.8948  -10.6560 H   0  0  0  0  0  0  0  0  0  0  0  0
    8.6753  -28.1152   -9.9222 H   0  0  0  0  0  0  0  0  0  0  0  0
   12.8166  -24.6362  -10.6602 H   0  0  0  0  0  0  0  0  0  0  0  0
   11.3499  -27.4433  -13.1197 H   0  0  0  0  0  0  0  0  0  0  0  0
   10.7530  -27.7813  -11.5012 H   0  0  0  0  0  0  0  0  0  0  0  0
   12.2296  -28.5776  -12.0759 H   0  0  0  0  0  0  0  0  0  0  0  0
  1  2  2  0  0  0  0
  1  6  1  0  0  0  0
  2  8  1  0  0  0  0
  3  4  1  0  0  0  0
  3  9  2  0  0  0  0
  4 10  2  0  0  0  0
  5  6  2  0  0  0  0
  5  7  1  0  0  0  0
  6  9  1  0  0  0  0
  7  8  2  0  0  0  0
  7 15  1  0  0  0  0
  8 19  1  0  0  0  0
  9 18  1  0  0  0  0
 10 11  1  0  0  0  0
 10 18  1  0  0  0  0
 11 12  2  0  0  0  0
 12 13  1  0  0  0  0
 12 14  1  0  0  0  0
 13 16  1  0  0  0  0
 13 17  2  0  0  0  0
 15 20  1  0  0  0  0
 15 21  1  0  0  0  0
 15 22  1  0  0  0  0
  1 23  1  0  0  0  0
  2 24  1  0  0  0  0
  3 25  1  0  0  0  0
  4 26  1  0  0  0  0
  5 27  1  0  0  0  0
 11 28  1  0  0  0  0
 14 29  1  0  0  0  0
 14 30  1  0  0  0  0
 14 31  1  0  0  0  0
M  CHG  1  16  -1
M  END
> <Hybrid2>
-5.601716041564941

> <Hybrid2>
-5.564597

$$$$
C45016425
  -OEChem-02152218513D

 25 26  0     0  0  0  0  0  0999 V2000
   10.1723  -26.8837   -9.6085 C   0  0  0  0  0  0  0  0  0  0  0  0
   11.4392  -26.9514  -10.1882 C   0  0  0  0  0  0  0  0  0  0  0  0
    6.9767  -25.2288   -9.2871 C   0  0  0  0  0  0  0  0  0  0  0  0
    5.8508  -25.8507   -8.6966 C   0  0  0  0  0  0  0  0  0  0  0  0
   10.5967  -25.8366  -12.1592 C   0  0  0  0  0  0  0  0  0  0  0  0
    9.1176  -26.2926  -10.3041 C   0  0  0  0  0  0  0  0  0  0  0  0
   11.6514  -26.4278  -11.4635 C   0  0  0  0  0  0  0  0  0  0  0  0
    9.3298  -25.7690  -11.5794 C   0  0  0  0  0  0  0  0  0  0  0  0
    7.8230  -26.2466   -9.6610 C   0  0  0  0  0  0  0  0  0  0  0  0
    6.0892  -27.2042   -8.7520 C   0  0  0  0  0  0  0  0  0  0  0  0
    5.2501  -28.2423   -8.2851 C   0  0  0  0  0  0  0  0  0  0  0  0
    5.4911  -29.5943   -8.3696 C   0  0  0  0  0  0  0  0  0  0  0  0
    6.7536  -30.1939   -9.0071 C   0  0  0  0  0  0  0  0  0  0  0  0
    7.7440  -30.3884   -8.2484 O   0  5  0  0  0  0  0  0  0  0  0  0
    6.6432  -30.4240  -10.2477 O   0  0  0  0  0  0  0  0  0  0  0  0
    7.2893  -27.4539   -9.3384 O   0  0  0  0  0  0  0  0  0  0  0  0
   13.3685  -26.5200  -12.2479 Br  0  0  0  0  0  0  0  0  0  0  0  0
    7.9389  -24.9500  -12.5837 Br  0  0  0  0  0  0  0  0  0  0  0  0
   10.0255  -27.2972   -8.6132 H   0  0  0  0  0  0  0  0  0  0  0  0
   12.2503  -27.4153   -9.6328 H   0  0  0  0  0  0  0  0  0  0  0  0
    7.1453  -24.1695   -9.4211 H   0  0  0  0  0  0  0  0  0  0  0  0
    4.9778  -25.3637   -8.2845 H   0  0  0  0  0  0  0  0  0  0  0  0
   10.7659  -25.4292  -13.1537 H   0  0  0  0  0  0  0  0  0  0  0  0
    4.2817  -27.9553   -7.8159 H   0  0  0  0  0  0  0  0  0  0  0  0
    4.7523  -30.2753   -7.9490 H   0  0  0  0  0  0  0  0  0  0  0  0
  1  2  1  0  0  0  0
  1  6  2  0  0  0  0
  2  7  2  0  0  0  0
  3  4  1  0  0  0  0
  3  9  2  0  0  0  0
  4 10  2  0  0  0  0
  5  7  1  0  0  0  0
  5  8  2  0  0  0  0
  6  8  1  0  0  0  0
  6  9  1  0  0  0  0
  7 17  1  0  0  0  0
  8 18  1  0  0  0  0
  9 16  1  0  0  0  0
 10 11  1  0  0  0  0
 10 16  1  0  0  0  0
 11 12  2  0  0  0  0
 12 13  1  0  0  0  0
 13 14  1  0  0  0  0
 13 15  2  0  0  0  0
  1 19  1  0  0  0  0
  2 20  1  0  0  0  0
  3 21  1  0  0  0  0
  4 22  1  0  0  0  0
  5 23  1  0  0  0  0
 11 24  1  0  0  0  0
 12 25  1  0  0  0  0
M  CHG  1  14  -1
M  END
> <Hybrid2>
-5.459212303161621

> <Hybrid2>
-5.459212

$$$$
C45016425
  -OEChem-02152218513D

 25 26  0     0  0  0  0  0  0999 V2000
    9.5323  -26.6733  -11.9829 C   0  0  0  0  0  0  0  0  0  0  0  0
   10.7597  -26.7544  -12.6405 C   0  0  0  0  0  0  0  0  0  0  0  0
    7.1988  -25.7090   -9.9233 C   0  0  0  0  0  0  0  0  0  0  0  0
    6.1637  -26.2351   -9.1139 C   0  0  0  0  0  0  0  0  0  0  0  0
   11.8814  -27.0065  -10.5155 C   0  0  0  0  0  0  0  0  0  0  0  0
    9.4794  -26.7586  -10.5916 C   0  0  0  0  0  0  0  0  0  0  0  0
   11.9343  -26.9211  -11.9068 C   0  0  0  0  0  0  0  0  0  0  0  0
   10.6539  -26.9252   -9.8579 C   0  0  0  0  0  0  0  0  0  0  0  0
    8.1834  -26.6689   -9.9560 C   0  0  0  0  0  0  0  0  0  0  0  0
    6.5895  -27.4791   -8.7100 C   0  0  0  0  0  0  0  0  0  0  0  0
    5.8981  -28.3956   -7.8844 C   0  0  0  0  0  0  0  0  0  0  0  0
    5.9716  -29.7684   -7.9395 C   0  0  0  0  0  0  0  0  0  0  0  0
    6.8481  -30.5325   -8.9434 C   0  0  0  0  0  0  0  0  0  0  0  0
    7.0560  -29.9822  -10.0607 O   0  5  0  0  0  0  0  0  0  0  0  0
    7.2637  -31.6501   -8.5162 O   0  0  0  0  0  0  0  0  0  0  0  0
    7.8197  -27.7511   -9.2190 O   0  0  0  0  0  0  0  0  0  0  0  0
   13.5968  -27.0310  -12.7991 Br  0  0  0  0  0  0  0  0  0  0  0  0
   10.6556  -27.0491   -7.9609 Br  0  0  0  0  0  0  0  0  0  0  0  0
    8.6269  -26.5433  -12.5714 H   0  0  0  0  0  0  0  0  0  0  0  0
   10.7837  -26.6861  -13.7250 H   0  0  0  0  0  0  0  0  0  0  0  0
    7.2194  -24.7486  -10.4189 H   0  0  0  0  0  0  0  0  0  0  0  0
    5.2264  -25.7586   -8.8620 H   0  0  0  0  0  0  0  0  0  0  0  0
   12.7996  -27.1364   -9.9465 H   0  0  0  0  0  0  0  0  0  0  0  0
    5.2033  -27.9820   -7.1184 H   0  0  0  0  0  0  0  0  0  0  0  0
    5.3867  -30.3436   -7.2229 H   0  0  0  0  0  0  0  0  0  0  0  0
  1  2  1  0  0  0  0
  1  6  2  0  0  0  0
  2  7  2  0  0  0  0
  3  4  1  0  0  0  0
  3  9  2  0  0  0  0
  4 10  2  0  0  0  0
  5  7  1  0  0  0  0
  5  8  2  0  0  0  0
  6  8  1  0  0  0  0
  6  9  1  0  0  0  0
  7 17  1  0  0  0  0
  8 18  1  0  0  0  0
  9 16  1  0  0  0  0
 10 11  1  0  0  0  0
 10 16  1  0  0  0  0
 11 12  2  0  0  0  0
 12 13  1  0  0  0  0
 13 14  1  0  0  0  0
 13 15  2  0  0  0  0
  1 19  1  0  0  0  0
  2 20  1  0  0  0  0
  3 21  1  0  0  0  0
  4 22  1  0  0  0  0
  5 23  1  0  0  0  0
 11 24  1  0  0  0  0
 12 25  1  0  0  0  0
M  CHG  1  14  -1
M  END
> <Hybrid2>
-5.459212303161621

> <Hybrid2>
-4.410985

$$$$
C48440713
  -OEChem-02152218513D

 35 36  0     0  0  0  0  0  0999 V2000
   10.5219  -25.4530  -12.1939 C   0  0  0  0  0  0  0  0  0  0  0  0
   11.3174  -26.5814  -10.2112 C   0  0  0  0  0  0  0  0  0  0  0  0
    9.3503  -25.1014  -11.5237 C   0  0  0  0  0  0  0  0  0  0  0  0
   10.1458  -26.2297   -9.5410 C   0  0  0  0  0  0  0  0  0  0  0  0
    6.0884  -29.3885   -8.5332 C   0  0  0  0  0  0  0  0  0  0  0  0
    5.5219  -28.7304   -7.4639 C   0  0  0  0  0  0  0  0  0  0  0  0
   11.5055  -26.1930  -11.5377 C   0  0  0  0  0  0  0  0  0  0  0  0
    9.1622  -25.4897  -10.1973 C   0  0  0  0  0  0  0  0  0  0  0  0
    6.5261  -28.4868   -9.5459 C   0  0  0  0  0  0  0  0  0  0  0  0
    6.2771  -27.1736   -9.2120 C   0  0  0  0  0  0  0  0  0  0  0  0
   13.5371  -25.3048  -12.7333 C   0  0  0  0  0  0  0  0  0  0  0  0
   12.4509  -27.4372  -13.5138 C   0  0  0  0  0  0  0  0  0  0  0  0
   13.7871  -27.3995  -11.4175 C   0  0  0  0  0  0  0  0  0  0  0  0
   12.7970  -26.5807  -12.2766 C   0  0  0  0  0  0  0  0  0  0  0  0
    8.0306  -25.1501   -9.5501 N   0  5  0  0  0  0  0  0  0  0  0  0
    6.4830  -25.9616  -11.4508 O   0  0  0  0  0  0  0  0  0  0  0  0
    5.4759  -24.7738   -9.5531 O   0  0  0  0  0  0  0  0  0  0  0  0
    5.5191  -27.0320   -7.6831 S   0  0  0  0  0  0  0  0  0  0  0  0
    6.5797  -25.5996  -10.0383 S   0  0  0  0  0  0  0  0  0  0  0  0
    7.3432  -29.0815  -11.1350 Br  0  0  0  0  0  0  0  0  0  0  0  0
   10.6603  -25.1464  -13.2273 H   0  0  0  0  0  0  0  0  0  0  0  0
   12.0785  -27.1580   -9.6921 H   0  0  0  0  0  0  0  0  0  0  0  0
    8.5948  -24.5241  -12.0524 H   0  0  0  0  0  0  0  0  0  0  0  0
   10.0169  -26.5416   -8.5067 H   0  0  0  0  0  0  0  0  0  0  0  0
    6.1798  -30.4667   -8.5769 H   0  0  0  0  0  0  0  0  0  0  0  0
    5.1096  -29.1655   -6.5645 H   0  0  0  0  0  0  0  0  0  0  0  0
   14.4635  -25.5537  -13.2640 H   0  0  0  0  0  0  0  0  0  0  0  0
   12.9322  -24.6958  -13.4141 H   0  0  0  0  0  0  0  0  0  0  0  0
   13.8025  -24.6746  -11.8761 H   0  0  0  0  0  0  0  0  0  0  0  0
   13.3436  -27.7376  -14.0731 H   0  0  0  0  0  0  0  0  0  0  0  0
   11.9298  -28.3573  -13.2244 H   0  0  0  0  0  0  0  0  0  0  0  0
   11.7996  -26.8880  -14.2040 H   0  0  0  0  0  0  0  0  0  0  0  0
   14.6899  -27.6511  -11.9870 H   0  0  0  0  0  0  0  0  0  0  0  0
   14.1110  -26.8406  -10.5317 H   0  0  0  0  0  0  0  0  0  0  0  0
   13.3444  -28.3447  -11.0822 H   0  0  0  0  0  0  0  0  0  0  0  0
  1  3  2  0  0  0  0
  1  7  1  0  0  0  0
  2  4  1  0  0  0  0
  2  7  2  0  0  0  0
  3  8  1  0  0  0  0
  4  8  2  0  0  0  0
  5  6  2  0  0  0  0
  5  9  1  0  0  0  0
  6 18  1  0  0  0  0
  7 14  1  0  0  0  0
  8 15  1  0  0  0  0
  9 10  2  0  0  0  0
  9 20  1  0  0  0  0
 10 18  1  0  0  0  0
 10 19  1  0  0  0  0
 11 14  1  0  0  0  0
 12 14  1  0  0  0  0
 13 14  1  0  0  0  0
 15 19  1  0  0  0  0
 16 19  2  0  0  0  0
 17 19  2  0  0  0  0
  1 21  1  0  0  0  0
  2 22  1  0  0  0  0
  3 23  1  0  0  0  0
  4 24  1  0  0  0  0
  5 25  1  0  0  0  0
  6 26  1  0  0  0  0
 11 27  1  0  0  0  0
 11 28  1  0  0  0  0
 11 29  1  0  0  0  0
 12 30  1  0  0  0  0
 12 31  1  0  0  0  0
 12 32  1  0  0  0  0
 13 33  1  0  0  0  0
 13 34  1  0  0  0  0
 13 35  1  0  0  0  0
M  CHG  1  15  -1
M  END
> <Hybrid2>
-4.454306125640869

> <Hybrid2>
-4.454306

$$$$
C48440713
  -OEChem-02152218513D

 35 36  0     0  0  0  0  0  0999 V2000
   11.0431  -27.4719  -10.1288 C   0  0  0  0  0  0  0  0  0  0  0  0
    9.8993  -26.2591  -11.8775 C   0  0  0  0  0  0  0  0  0  0  0  0
    9.9946  -27.1957   -9.2513 C   0  0  0  0  0  0  0  0  0  0  0  0
    8.8507  -25.9829  -11.0000 C   0  0  0  0  0  0  0  0  0  0  0  0
    6.6386  -30.6936   -9.7792 C   0  0  0  0  0  0  0  0  0  0  0  0
    6.4254  -30.7841   -8.4213 C   0  0  0  0  0  0  0  0  0  0  0  0
   10.9954  -27.0036  -11.4419 C   0  0  0  0  0  0  0  0  0  0  0  0
    8.8984  -26.4512   -9.6869 C   0  0  0  0  0  0  0  0  0  0  0  0
    6.6610  -29.3416  -10.2285 C   0  0  0  0  0  0  0  0  0  0  0  0
    6.4638  -28.4502   -9.1968 C   0  0  0  0  0  0  0  0  0  0  0  0
   12.3079  -28.8361  -12.5667 C   0  0  0  0  0  0  0  0  0  0  0  0
   13.4648  -26.7181  -11.8514 C   0  0  0  0  0  0  0  0  0  0  0  0
   11.9528  -26.7213  -13.8250 C   0  0  0  0  0  0  0  0  0  0  0  0
   12.1514  -27.3081  -12.4090 C   0  0  0  0  0  0  0  0  0  0  0  0
    7.8859  -26.1845   -8.8395 N   0  5  0  0  0  0  0  0  0  0  0  0
    5.8410  -26.2918  -10.4121 O   0  0  0  0  0  0  0  0  0  0  0  0
    5.4600  -26.4362   -7.9912 O   0  0  0  0  0  0  0  0  0  0  0  0
    6.2532  -29.2435   -7.6939 S   0  0  0  0  0  0  0  0  0  0  0  0
    6.3832  -26.6511   -9.1034 S   0  0  0  0  0  0  0  0  0  0  0  0
    6.9328  -28.8887  -12.0362 Br  0  0  0  0  0  0  0  0  0  0  0  0
   11.8934  -28.0526   -9.7812 H   0  0  0  0  0  0  0  0  0  0  0  0
    9.8537  -25.8903  -12.8988 H   0  0  0  0  0  0  0  0  0  0  0  0
   10.0500  -27.5694   -8.2312 H   0  0  0  0  0  0  0  0  0  0  0  0
    8.0041  -25.4008  -11.3578 H   0  0  0  0  0  0  0  0  0  0  0  0
    6.7711  -31.5627  -10.4115 H   0  0  0  0  0  0  0  0  0  0  0  0
    6.3626  -31.6811   -7.8216 H   0  0  0  0  0  0  0  0  0  0  0  0
   13.1272  -29.0809  -13.2527 H   0  0  0  0  0  0  0  0  0  0  0  0
   12.5294  -29.3307  -11.6146 H   0  0  0  0  0  0  0  0  0  0  0  0
   11.3919  -29.2872  -12.9664 H   0  0  0  0  0  0  0  0  0  0  0  0
   14.3186  -26.9114  -12.5098 H   0  0  0  0  0  0  0  0  0  0  0  0
   13.3910  -25.6306  -11.7337 H   0  0  0  0  0  0  0  0  0  0  0  0
   13.7031  -27.1444  -10.8697 H   0  0  0  0  0  0  0  0  0  0  0  0
   12.8012  -26.9647  -14.4761 H   0  0  0  0  0  0  0  0  0  0  0  0
   11.0530  -27.1227  -14.3058 H   0  0  0  0  0  0  0  0  0  0  0  0
   11.8688  -25.6286  -13.8009 H   0  0  0  0  0  0  0  0  0  0  0  0
  1  3  2  0  0  0  0
  1  7  1  0  0  0  0
  2  4  1  0  0  0  0
  2  7  2  0  0  0  0
  3  8  1  0  0  0  0
  4  8  2  0  0  0  0
  5  6  2  0  0  0  0
  5  9  1  0  0  0  0
  6 18  1  0  0  0  0
  7 14  1  0  0  0  0
  8 15  1  0  0  0  0
  9 10  2  0  0  0  0
  9 20  1  0  0  0  0
 10 18  1  0  0  0  0
 10 19  1  0  0  0  0
 11 14  1  0  0  0  0
 12 14  1  0  0  0  0
 13 14  1  0  0  0  0
 15 19  1  0  0  0  0
 16 19  2  0  0  0  0
 17 19  2  0  0  0  0
  1 21  1  0  0  0  0
  2 22  1  0  0  0  0
  3 23  1  0  0  0  0
  4 24  1  0  0  0  0
  5 25  1  0  0  0  0
  6 26  1  0  0  0  0
 11 27  1  0  0  0  0
 11 28  1  0  0  0  0
 11 29  1  0  0  0  0
 12 30  1  0  0  0  0
 12 31  1  0  0  0  0
 12 32  1  0  0  0  0
 13 33  1  0  0  0  0
 13 34  1  0  0  0  0
 13 35  1  0  0  0  0
M  CHG  1  15  -1
M  END
> <Hybrid2>
-4.454306125640869

> <Hybrid2>
-4.022097

$$$$
C49546411
  -OEChem-02152218513D

 37 39  0     1  0  0  0  0  0999 V2000
    4.9550  -25.3786   -9.3599 C   0  0  0  0  0  0  0  0  0  0  0  0
    5.9050  -24.6310  -10.0557 C   0  0  0  0  0  0  0  0  0  0  0  0
    5.3628  -26.4039   -8.5066 C   0  0  0  0  0  0  0  0  0  0  0  0
    7.1708  -30.5938   -9.0074 C   0  0  0  0  0  0  0  0  0  0  0  0
    7.2629  -24.9087   -9.8982 C   0  0  0  0  0  0  0  0  0  0  0  0
    6.7207  -26.6816   -8.3491 C   0  0  0  0  0  0  0  0  0  0  0  0
    8.3606  -29.8419   -9.2289 C   0  0  0  0  0  0  0  0  0  0  0  0
    6.1467  -30.1990   -9.8399 C   0  0  0  0  0  0  0  0  0  0  0  0
    7.6707  -25.9340   -9.0449 C   0  0  0  0  0  0  0  0  0  0  0  0
    8.2006  -28.9011  -10.2226 C   0  0  0  0  0  0  0  0  0  0  0  0
    9.0753  -26.2205   -8.8814 C   0  0  0  0  0  0  0  0  0  0  0  0
   11.0464  -27.0798   -9.1741 C   0  0  0  0  0  0  0  0  0  0  0  0
    9.2901  -25.2114  -13.5920 C   0  0  0  0  0  0  0  0  0  0  0  0
    9.8025  -26.0554  -12.4350 C   0  0  0  0  0  0  0  0  0  0  0  0
    8.7351  -27.0426  -11.9479 C   0  0  0  0  0  0  0  0  0  0  0  0
    9.2215  -27.9061  -10.7588 C   0  0  1  0  0  0  0  0  0  0  0  0
    9.8760  -25.6850   -7.9878 N   0  0  0  0  0  0  0  0  0  0  0  0
   11.1300  -26.2317   -8.1740 N   0  0  0  0  0  0  0  0  0  0  0  0
    9.7704  -27.1045   -9.6496 N   0  0  0  0  0  0  0  0  0  0  0  0
   12.3211  -28.0126   -9.7937 S   0  5  0  0  0  0  0  0  0  0  0  0
    6.6211  -28.9268  -10.8833 S   0  0  0  0  0  0  0  0  0  0  0  0
    3.8978  -25.1620   -9.4821 H   0  0  0  0  0  0  0  0  0  0  0  0
    5.5872  -23.8329  -10.7203 H   0  0  0  0  0  0  0  0  0  0  0  0
    4.6231  -26.9854   -7.9639 H   0  0  0  0  0  0  0  0  0  0  0  0
    7.0705  -31.3846   -8.2756 H   0  0  0  0  0  0  0  0  0  0  0  0
    7.9913  -24.3152  -10.4455 H   0  0  0  0  0  0  0  0  0  0  0  0
    7.0224  -27.4848   -7.6810 H   0  0  0  0  0  0  0  0  0  0  0  0
    9.2853  -29.9886   -8.6852 H   0  0  0  0  0  0  0  0  0  0  0  0
    5.1426  -30.5966   -9.8851 H   0  0  0  0  0  0  0  0  0  0  0  0
    8.9803  -25.8544  -14.4218 H   0  0  0  0  0  0  0  0  0  0  0  0
    8.4274  -24.6104  -13.2877 H   0  0  0  0  0  0  0  0  0  0  0  0
   10.0688  -24.5349  -13.9587 H   0  0  0  0  0  0  0  0  0  0  0  0
   10.1052  -25.3890  -11.6198 H   0  0  0  0  0  0  0  0  0  0  0  0
   10.6957  -26.6019  -12.7586 H   0  0  0  0  0  0  0  0  0  0  0  0
    8.4658  -27.7045  -12.7817 H   0  0  0  0  0  0  0  0  0  0  0  0
    7.8281  -26.4836  -11.6883 H   0  0  0  0  0  0  0  0  0  0  0  0
   10.0565  -28.5047  -11.1515 H   0  0  0  0  0  0  0  0  0  0  0  0
  1  2  1  0  0  0  0
  1  3  2  0  0  0  0
  2  5  2  0  0  0  0
  3  6  1  0  0  0  0
  4  7  1  0  0  0  0
  4  8  2  0  0  0  0
  5  9  1  0  0  0  0
  6  9  2  0  0  0  0
  7 10  2  0  0  0  0
  8 21  1  0  0  0  0
  9 11  1  0  0  0  0
 10 16  1  0  0  0  0
 10 21  1  0  0  0  0
 11 17  2  0  0  0  0
 11 19  1  0  0  0  0
 12 18  2  0  0  0  0
 12 19  1  0  0  0  0
 12 20  1  0  0  0  0
 13 14  1  0  0  0  0
 14 15  1  0  0  0  0
 15 16  1  0  0  0  0
 16 19  1  0  0  0  0
 17 18  1  0  0  0  0
  1 22  1  0  0  0  0
  2 23  1  0  0  0  0
  3 24  1  0  0  0  0
  4 25  1  0  0  0  0
  5 26  1  0  0  0  0
  6 27  1  0  0  0  0
  7 28  1  0  0  0  0
  8 29  1  0  0  0  0
 13 30  1  0  0  0  0
 13 31  1  0  0  0  0
 13 32  1  0  0  0  0
 14 33  1  0  0  0  0
 14 34  1  0  0  0  0
 15 35  1  0  0  0  0
 15 36  1  0  0  0  0
 16 37  1  0  0  0  0
M  CHG  1  20  -1
M  END
> <Hybrid2>
-4.068962574005127

> <Hybrid2>
-4.068963

$$$$
C49546411
  -OEChem-02152218513D

 37 39  0     1  0  0  0  0  0999 V2000
   10.1661  -26.6906  -14.3762 C   0  0  0  0  0  0  0  0  0  0  0  0
    9.9976  -27.9013  -13.7042 C   0  0  0  0  0  0  0  0  0  0  0  0
   10.4758  -25.5335  -13.6615 C   0  0  0  0  0  0  0  0  0  0  0  0
    5.5961  -28.7922   -8.2183 C   0  0  0  0  0  0  0  0  0  0  0  0
   10.1387  -27.9548  -12.3175 C   0  0  0  0  0  0  0  0  0  0  0  0
   10.6170  -25.5870  -12.2748 C   0  0  0  0  0  0  0  0  0  0  0  0
    6.1644  -27.4979   -8.3976 C   0  0  0  0  0  0  0  0  0  0  0  0
    6.2999  -29.7645   -8.8942 C   0  0  0  0  0  0  0  0  0  0  0  0
   10.4484  -26.7976  -11.6028 C   0  0  0  0  0  0  0  0  0  0  0  0
    7.2812  -27.5304   -9.2036 C   0  0  0  0  0  0  0  0  0  0  0  0
   10.5953  -26.8533  -10.1686 C   0  0  0  0  0  0  0  0  0  0  0  0
   10.1289  -26.7967   -8.0500 C   0  0  0  0  0  0  0  0  0  0  0  0
    7.9351  -23.9458  -11.4561 C   0  0  0  0  0  0  0  0  0  0  0  0
    8.3226  -23.8384   -9.9892 C   0  0  0  0  0  0  0  0  0  0  0  0
    7.7065  -24.9742   -9.1638 C   0  0  0  0  0  0  0  0  0  0  0  0
    8.1719  -26.3731   -9.6359 C   0  0  1  0  0  0  0  0  0  0  0  0
   11.7090  -27.0898   -9.5128 N   0  0  0  0  0  0  0  0  0  0  0  0
   11.4123  -27.0538   -8.1649 N   0  0  0  0  0  0  0  0  0  0  0  0
    9.5749  -26.6630   -9.2869 N   0  0  0  0  0  0  0  0  0  0  0  0
    9.2728  -26.6490   -6.5925 S   0  5  0  0  0  0  0  0  0  0  0  0
    7.6401  -29.1164   -9.7405 S   0  0  0  0  0  0  0  0  0  0  0  0
   10.0568  -26.6491  -15.4560 H   0  0  0  0  0  0  0  0  0  0  0  0
    9.7562  -28.8021  -14.2609 H   0  0  0  0  0  0  0  0  0  0  0  0
   10.6081  -24.5910  -14.1849 H   0  0  0  0  0  0  0  0  0  0  0  0
    4.7165  -29.0004   -7.6234 H   0  0  0  0  0  0  0  0  0  0  0  0
   10.0069  -28.9066  -11.8086 H   0  0  0  0  0  0  0  0  0  0  0  0
   10.8575  -24.6760  -11.7320 H   0  0  0  0  0  0  0  0  0  0  0  0
    5.7710  -26.5920   -7.9542 H   0  0  0  0  0  0  0  0  0  0  0  0
    6.0911  -30.8243   -8.9318 H   0  0  0  0  0  0  0  0  0  0  0  0
    8.2561  -24.9097  -11.8631 H   0  0  0  0  0  0  0  0  0  0  0  0
    6.8505  -23.8681  -11.5823 H   0  0  0  0  0  0  0  0  0  0  0  0
    8.4078  -23.1536  -12.0455 H   0  0  0  0  0  0  0  0  0  0  0  0
    7.9906  -22.8667   -9.6072 H   0  0  0  0  0  0  0  0  0  0  0  0
    9.4151  -23.8663   -9.9046 H   0  0  0  0  0  0  0  0  0  0  0  0
    6.6134  -24.9149   -9.2503 H   0  0  0  0  0  0  0  0  0  0  0  0
    7.9446  -24.8124   -8.1057 H   0  0  0  0  0  0  0  0  0  0  0  0
    8.1255  -26.3439  -10.7344 H   0  0  0  0  0  0  0  0  0  0  0  0
  1  2  1  0  0  0  0
  1  3  2  0  0  0  0
  2  5  2  0  0  0  0
  3  6  1  0  0  0  0
  4  7  1  0  0  0  0
  4  8  2  0  0  0  0
  5  9  1  0  0  0  0
  6  9  2  0  0  0  0
  7 10  2  0  0  0  0
  8 21  1  0  0  0  0
  9 11  1  0  0  0  0
 10 16  1  0  0  0  0
 10 21  1  0  0  0  0
 11 17  2  0  0  0  0
 11 19  1  0  0  0  0
 12 18  2  0  0  0  0
 12 19  1  0  0  0  0
 12 20  1  0  0  0  0
 13 14  1  0  0  0  0
 14 15  1  0  0  0  0
 15 16  1  0  0  0  0
 16 19  1  0  0  0  0
 17 18  1  0  0  0  0
  1 22  1  0  0  0  0
  2 23  1  0  0  0  0
  3 24  1  0  0  0  0
  4 25  1  0  0  0  0
  5 26  1  0  0  0  0
  6 27  1  0  0  0  0
  7 28  1  0  0  0  0
  8 29  1  0  0  0  0
 13 30  1  0  0  0  0
 13 31  1  0  0  0  0
 13 32  1  0  0  0  0
 14 33  1  0  0  0  0
 14 34  1  0  0  0  0
 15 35  1  0  0  0  0
 15 36  1  0  0  0  0
 16 37  1  0  0  0  0
M  CHG  1  20  -1
M  END
> <Hybrid2>
-4.068962574005127

> <Hybrid2>
-3.661021

$$$$
C09553561
  -OEChem-02152218513D

 30 30  0     0  0  0  0  0  0999 V2000
   10.7827  -27.6018  -11.7378 C   0  0  0  0  0  0  0  0  0  0  0  0
   11.3682  -25.9152  -10.1101 C   0  0  0  0  0  0  0  0  0  0  0  0
   12.1307  -27.9290  -11.8837 C   0  0  0  0  0  0  0  0  0  0  0  0
   12.7163  -26.2424  -10.2560 C   0  0  0  0  0  0  0  0  0  0  0  0
   10.4014  -26.5948  -10.8510 C   0  0  0  0  0  0  0  0  0  0  0  0
   13.0975  -27.2494  -11.1428 C   0  0  0  0  0  0  0  0  0  0  0  0
    8.4030  -26.9975   -9.7144 C   0  0  0  0  0  0  0  0  0  0  0  0
    8.9566  -26.2438  -10.6946 C   0  0  0  0  0  0  0  0  0  0  0  0
    6.9697  -26.9023   -9.2847 C   0  0  0  0  0  0  0  0  0  0  0  0
   14.5384  -27.6014  -11.2975 C   0  0  0  0  0  0  0  0  0  0  0  0
    6.5308  -27.8298   -8.1676 C   0  0  0  0  0  0  0  0  0  0  0  0
    6.0090  -29.1698   -8.6638 C   0  0  0  0  0  0  0  0  0  0  0  0
    6.9906  -29.9944   -9.4607 C   0  0  0  0  0  0  0  0  0  0  0  0
    8.4545  -25.3502  -11.4361 O   0  5  0  0  0  0  0  0  0  0  0  0
    6.1805  -26.1088   -9.7918 O   0  0  0  0  0  0  0  0  0  0  0  0
    7.5663  -28.0598   -7.3119 F   0  0  0  0  0  0  0  0  0  0  0  0
    5.5550  -27.2469   -7.4149 F   0  0  0  0  0  0  0  0  0  0  0  0
    5.6286  -29.9002   -7.5787 F   0  0  0  0  0  0  0  0  0  0  0  0
    4.8874  -28.9812   -9.4047 F   0  0  0  0  0  0  0  0  0  0  0  0
    8.0832  -30.2771   -8.7168 F   0  0  0  0  0  0  0  0  0  0  0  0
    6.4558  -31.1681   -9.8567 F   0  0  0  0  0  0  0  0  0  0  0  0
    7.4054  -29.3345  -10.5628 F   0  0  0  0  0  0  0  0  0  0  0  0
   10.0406  -28.1403  -12.3224 H   0  0  0  0  0  0  0  0  0  0  0  0
   11.0866  -25.1281   -9.4146 H   0  0  0  0  0  0  0  0  0  0  0  0
   12.4186  -28.7153  -12.5765 H   0  0  0  0  0  0  0  0  0  0  0  0
   13.4631  -25.7078   -9.6749 H   0  0  0  0  0  0  0  0  0  0  0  0
    8.9900  -27.7287   -9.1613 H   0  0  0  0  0  0  0  0  0  0  0  0
   14.9963  -26.9970  -12.0902 H   0  0  0  0  0  0  0  0  0  0  0  0
   15.0928  -27.4304  -10.3656 H   0  0  0  0  0  0  0  0  0  0  0  0
   14.6644  -28.6619  -11.5519 H   0  0  0  0  0  0  0  0  0  0  0  0
  1  3  2  0  0  0  0
  1  5  1  0  0  0  0
  2  4  1  0  0  0  0
  2  5  2  0  0  0  0
  3  6  1  0  0  0  0
  4  6  2  0  0  0  0
  5  8  1  0  0  0  0
  6 10  1  0  0  0  0
  7  8  2  0  0  0  0
  7  9  1  0  0  0  0
  8 14  1  0  0  0  0
  9 11  1  0  0  0  0
  9 15  2  0  0  0  0
 11 12  1  0  0  0  0
 11 16  1  0  0  0  0
 11 17  1  0  0  0  0
 12 13  1  0  0  0  0
 12 18  1  0  0  0  0
 12 19  1  0  0  0  0
 13 20  1  0  0  0  0
 13 21  1  0  0  0  0
 13 22  1  0  0  0  0
  1 23  1  0  0  0  0
  2 24  1  0  0  0  0
  3 25  1  0  0  0  0
  4 26  1  0  0  0  0
  7 27  1  0  0  0  0
 10 28  1  0  0  0  0
 10 29  1  0  0  0  0
 10 30  1  0  0  0  0
M  CHG  1  14  -1
M  END
> <Hybrid2>
-4.277907848358154

> <Hybrid2>
-4.277908

$$$$
C09553561
  -OEChem-02152218513D

 30 30  0     0  0  0  0  0  0999 V2000
   11.7853  -26.4161  -11.8130 C   0  0  0  0  0  0  0  0  0  0  0  0
   12.0667  -26.4263   -9.4135 C   0  0  0  0  0  0  0  0  0  0  0  0
   13.0346  -27.0183  -11.9621 C   0  0  0  0  0  0  0  0  0  0  0  0
   13.3160  -27.0285   -9.5626 C   0  0  0  0  0  0  0  0  0  0  0  0
   11.3014  -26.1200  -10.5387 C   0  0  0  0  0  0  0  0  0  0  0  0
   13.7999  -27.3245  -10.8369 C   0  0  0  0  0  0  0  0  0  0  0  0
    9.0029  -26.4246  -10.2701 C   0  0  0  0  0  0  0  0  0  0  0  0
    9.9624  -25.4745  -10.3787 C   0  0  0  0  0  0  0  0  0  0  0  0
    7.5434  -26.1330  -10.0891 C   0  0  0  0  0  0  0  0  0  0  0  0
   15.1345  -27.9705  -10.9969 C   0  0  0  0  0  0  0  0  0  0  0  0
    6.6174  -27.3301   -9.9869 C   0  0  0  0  0  0  0  0  0  0  0  0
    6.4174  -27.8201   -8.5608 C   0  0  0  0  0  0  0  0  0  0  0  0
    5.5031  -29.0112   -8.4052 C   0  0  0  0  0  0  0  0  0  0  0  0
    9.8838  -24.2119  -10.3615 O   0  5  0  0  0  0  0  0  0  0  0  0
    7.1043  -24.9880  -10.0116 O   0  0  0  0  0  0  0  0  0  0  0  0
    5.3977  -27.0287  -10.5149 F   0  0  0  0  0  0  0  0  0  0  0  0
    7.0925  -28.3695  -10.7300 F   0  0  0  0  0  0  0  0  0  0  0  0
    7.6375  -28.1573   -8.0576 F   0  0  0  0  0  0  0  0  0  0  0  0
    5.9560  -26.8056   -7.7859 F   0  0  0  0  0  0  0  0  0  0  0  0
    5.9851  -30.0695   -9.0944 F   0  0  0  0  0  0  0  0  0  0  0  0
    5.3841  -29.3882   -7.1154 F   0  0  0  0  0  0  0  0  0  0  0  0
    4.2661  -28.7455   -8.8759 F   0  0  0  0  0  0  0  0  0  0  0  0
   11.2004  -26.1831  -12.6996 H   0  0  0  0  0  0  0  0  0  0  0  0
   11.7029  -26.2020   -8.4136 H   0  0  0  0  0  0  0  0  0  0  0  0
   13.4035  -27.2458  -12.9587 H   0  0  0  0  0  0  0  0  0  0  0  0
   13.9059  -27.2637   -8.6805 H   0  0  0  0  0  0  0  0  0  0  0  0
    9.2488  -27.4848  -10.2990 H   0  0  0  0  0  0  0  0  0  0  0  0
   15.9191  -27.2092  -11.0868 H   0  0  0  0  0  0  0  0  0  0  0  0
   15.3711  -28.6142  -10.1398 H   0  0  0  0  0  0  0  0  0  0  0  0
   15.1642  -28.6078  -11.8904 H   0  0  0  0  0  0  0  0  0  0  0  0
  1  3  2  0  0  0  0
  1  5  1  0  0  0  0
  2  4  1  0  0  0  0
  2  5  2  0  0  0  0
  3  6  1  0  0  0  0
  4  6  2  0  0  0  0
  5  8  1  0  0  0  0
  6 10  1  0  0  0  0
  7  8  2  0  0  0  0
  7  9  1  0  0  0  0
  8 14  1  0  0  0  0
  9 11  1  0  0  0  0
  9 15  2  0  0  0  0
 11 12  1  0  0  0  0
 11 16  1  0  0  0  0
 11 17  1  0  0  0  0
 12 13  1  0  0  0  0
 12 18  1  0  0  0  0
 12 19  1  0  0  0  0
 13 20  1  0  0  0  0
 13 21  1  0  0  0  0
 13 22  1  0  0  0  0
  1 23  1  0  0  0  0
  2 24  1  0  0  0  0
  3 25  1  0  0  0  0
  4 26  1  0  0  0  0
  7 27  1  0  0  0  0
 10 28  1  0  0  0  0
 10 29  1  0  0  0  0
 10 30  1  0  0  0  0
M  CHG  1  14  -1
M  END
> <Hybrid2>
-4.277907848358154

> <Hybrid2>
-3.483053

$$$$
C50011087
  -OEChem-02152218513D

 35 36  0     1  0  0  0  0  0999 V2000
    7.2410  -30.2418   -9.4280 C   0  0  0  0  0  0  0  0  0  0  0  0
    5.9199  -30.3674   -8.9983 C   0  0  0  0  0  0  0  0  0  0  0  0
   10.4992  -26.6034   -9.7525 C   0  0  0  0  0  0  0  0  0  0  0  0
   10.0856  -26.6289  -12.1327 C   0  0  0  0  0  0  0  0  0  0  0  0
    7.8258  -28.9791   -9.5248 C   0  0  0  0  0  0  0  0  0  0  0  0
    5.1836  -29.2305   -8.6655 C   0  0  0  0  0  0  0  0  0  0  0  0
   11.8366  -26.9269   -9.9814 C   0  0  0  0  0  0  0  0  0  0  0  0
   11.4230  -26.9524  -12.3616 C   0  0  0  0  0  0  0  0  0  0  0  0
    9.6237  -26.4545  -10.8281 C   0  0  0  0  0  0  0  0  0  0  0  0
    7.0895  -27.8421   -9.1919 C   0  0  0  0  0  0  0  0  0  0  0  0
    5.7684  -27.9678   -8.7623 C   0  0  0  0  0  0  0  0  0  0  0  0
   12.2985  -27.1014  -11.2859 C   0  0  0  0  0  0  0  0  0  0  0  0
    8.0448  -24.5436  -10.5743 C   0  0  0  0  0  0  0  0  0  0  0  0
    7.2945  -26.7563  -11.6472 C   0  0  0  0  0  0  0  0  0  0  0  0
    7.8107  -25.7102   -8.1456 C   0  0  0  0  0  0  0  0  0  0  0  0
    8.1938  -26.1087  -10.5834 C   0  0  1  0  0  0  0  0  0  0  0  0
    7.6726  -26.5891   -9.2889 N   0  0  3  0  0  0  0  0  0  0  0  0
    6.8673  -24.1320  -10.3532 O   0  5  0  0  0  0  0  0  0  0  0  0
    9.0960  -23.8686  -10.7642 O   0  0  0  0  0  0  0  0  0  0  0  0
    5.0516  -26.8817   -8.4401 F   0  0  0  0  0  0  0  0  0  0  0  0
   14.1105  -27.5402  -11.5951 Br  0  0  0  0  0  0  0  0  0  0  0  0
    7.8140  -31.1271   -9.6872 H   0  0  0  0  0  0  0  0  0  0  0  0
    5.4652  -31.3508   -8.9230 H   0  0  0  0  0  0  0  0  0  0  0  0
   10.1481  -26.4692   -8.7327 H   0  0  0  0  0  0  0  0  0  0  0  0
    9.4105  -26.5158  -12.9769 H   0  0  0  0  0  0  0  0  0  0  0  0
    8.8564  -28.8927   -9.8600 H   0  0  0  0  0  0  0  0  0  0  0  0
    4.1552  -29.3281   -8.3310 H   0  0  0  0  0  0  0  0  0  0  0  0
   12.5054  -27.0403   -9.1319 H   0  0  0  0  0  0  0  0  0  0  0  0
   11.7671  -27.0847  -13.3840 H   0  0  0  0  0  0  0  0  0  0  0  0
    6.2302  -26.5239  -11.5002 H   0  0  0  0  0  0  0  0  0  0  0  0
    7.5602  -26.4274  -12.6601 H   0  0  0  0  0  0  0  0  0  0  0  0
    7.3924  -27.8508  -11.6235 H   0  0  0  0  0  0  0  0  0  0  0  0
    8.2994  -24.7755   -8.4579 H   0  0  0  0  0  0  0  0  0  0  0  0
    6.8157  -25.4840   -7.7348 H   0  0  0  0  0  0  0  0  0  0  0  0
    8.4218  -26.2037   -7.3755 H   0  0  0  0  0  0  0  0  0  0  0  0
  1  2  1  0  0  0  0
  1  5  2  0  0  0  0
  2  6  2  0  0  0  0
  3  7  2  0  0  0  0
  3  9  1  0  0  0  0
  4  8  1  0  0  0  0
  4  9  2  0  0  0  0
  5 10  1  0  0  0  0
  6 11  1  0  0  0  0
  7 12  1  0  0  0  0
  8 12  2  0  0  0  0
  9 16  1  0  0  0  0
 10 11  2  0  0  0  0
 10 17  1  0  0  0  0
 11 20  1  0  0  0  0
 12 21  1  0  0  0  0
 13 16  1  0  0  0  0
 13 18  1  0  0  0  0
 13 19  2  0  0  0  0
 14 16  1  0  0  0  0
 15 17  1  0  0  0  0
 16 17  1  0  0  0  0
  1 22  1  0  0  0  0
  2 23  1  0  0  0  0
  3 24  1  0  0  0  0
  4 25  1  0  0  0  0
  5 26  1  0  0  0  0
  6 27  1  0  0  0  0
  7 28  1  0  0  0  0
  8 29  1  0  0  0  0
 14 30  1  0  0  0  0
 14 31  1  0  0  0  0
 14 32  1  0  0  0  0
 15 33  1  0  0  0  0
 15 34  1  0  0  0  0
 15 35  1  0  0  0  0
M  CHG  1  18  -1
M  END
> <Hybrid2>
-6.92153787612915

> <Hybrid2>
-6.921538

$$$$
C50011087
  -OEChem-02152218513D

 35 36  0     1  0  0  0  0  0999 V2000
    5.0130  -28.7522   -8.5564 C   0  0  0  0  0  0  0  0  0  0  0  0
    5.6824  -29.9268   -8.8996 C   0  0  0  0  0  0  0  0  0  0  0  0
   10.5095  -26.4397   -9.4491 C   0  0  0  0  0  0  0  0  0  0  0  0
   10.1564  -26.3821  -11.8385 C   0  0  0  0  0  0  0  0  0  0  0  0
    5.6804  -27.5284   -8.6083 C   0  0  0  0  0  0  0  0  0  0  0  0
    7.0193  -29.8777   -9.2944 C   0  0  0  0  0  0  0  0  0  0  0  0
   11.8301  -26.8393   -9.6539 C   0  0  0  0  0  0  0  0  0  0  0  0
   11.4770  -26.7816  -12.0433 C   0  0  0  0  0  0  0  0  0  0  0  0
    9.6726  -26.2112  -10.5414 C   0  0  0  0  0  0  0  0  0  0  0  0
    7.0173  -27.4793   -9.0031 C   0  0  0  0  0  0  0  0  0  0  0  0
    7.6868  -28.6540   -9.3463 C   0  0  0  0  0  0  0  0  0  0  0  0
   12.3139  -27.0102  -10.9510 C   0  0  0  0  0  0  0  0  0  0  0  0
    8.2071  -24.2134  -10.2767 C   0  0  0  0  0  0  0  0  0  0  0  0
    7.3511  -26.3491  -11.4240 C   0  0  0  0  0  0  0  0  0  0  0  0
    7.8400  -25.4218   -7.8852 C   0  0  0  0  0  0  0  0  0  0  0  0
    8.2606  -25.7840  -10.3225 C   0  0  1  0  0  0  0  0  0  0  0  0
    7.6780  -26.2626   -9.0538 N   0  0  3  0  0  0  0  0  0  0  0  0
    7.0515  -23.7355  -10.0736 O   0  5  0  0  0  0  0  0  0  0  0  0
    9.3020  -23.6000  -10.4237 O   0  0  0  0  0  0  0  0  0  0  0  0
    8.9717  -28.6183   -9.7269 F   0  0  0  0  0  0  0  0  0  0  0  0
   14.1031  -27.5521  -11.2275 Br  0  0  0  0  0  0  0  0  0  0  0  0
    3.9722  -28.7907   -8.2489 H   0  0  0  0  0  0  0  0  0  0  0  0
    5.1622  -30.8793   -8.8592 H   0  0  0  0  0  0  0  0  0  0  0  0
   10.1411  -26.3089   -8.4350 H   0  0  0  0  0  0  0  0  0  0  0  0
    9.5113  -26.2072  -12.6955 H   0  0  0  0  0  0  0  0  0  0  0  0
    5.1489  -26.6189   -8.3395 H   0  0  0  0  0  0  0  0  0  0  0  0
    7.5406  -30.7920   -9.5616 H   0  0  0  0  0  0  0  0  0  0  0  0
   12.4687  -27.0142   -8.7918 H   0  0  0  0  0  0  0  0  0  0  0  0
   11.8385  -26.9101  -13.0601 H   0  0  0  0  0  0  0  0  0  0  0  0
    6.2995  -26.0552  -11.2968 H   0  0  0  0  0  0  0  0  0  0  0  0
    7.6623  -26.0127  -12.4214 H   0  0  0  0  0  0  0  0  0  0  0  0
    7.3815  -27.4478  -11.4262 H   0  0  0  0  0  0  0  0  0  0  0  0
    8.3926  -24.5117   -8.1614 H   0  0  0  0  0  0  0  0  0  0  0  0
    6.8504  -25.1449   -7.4928 H   0  0  0  0  0  0  0  0  0  0  0  0
    8.4000  -25.9705   -7.1135 H   0  0  0  0  0  0  0  0  0  0  0  0
  1  2  1  0  0  0  0
  1  5  2  0  0  0  0
  2  6  2  0  0  0  0
  3  7  2  0  0  0  0
  3  9  1  0  0  0  0
  4  8  1  0  0  0  0
  4  9  2  0  0  0  0
  5 10  1  0  0  0  0
  6 11  1  0  0  0  0
  7 12  1  0  0  0  0
  8 12  2  0  0  0  0
  9 16  1  0  0  0  0
 10 11  2  0  0  0  0
 10 17  1  0  0  0  0
 11 20  1  0  0  0  0
 12 21  1  0  0  0  0
 13 16  1  0  0  0  0
 13 18  1  0  0  0  0
 13 19  2  0  0  0  0
 14 16  1  0  0  0  0
 15 17  1  0  0  0  0
 16 17  1  0  0  0  0
  1 22  1  0  0  0  0
  2 23  1  0  0  0  0
  3 24  1  0  0  0  0
  4 25  1  0  0  0  0
  5 26  1  0  0  0  0
  6 27  1  0  0  0  0
  7 28  1  0  0  0  0
  8 29  1  0  0  0  0
 14 30  1  0  0  0  0
 14 31  1  0  0  0  0
 14 32  1  0  0  0  0
 15 33  1  0  0  0  0
 15 34  1  0  0  0  0
 15 35  1  0  0  0  0
M  CHG  1  18  -1
M  END
> <Hybrid2>
-6.92153787612915

> <Hybrid2>
-6.737173

$$$$
C18158215
  -OEChem-02152218513D

 28 30  0     0  0  0  0  0  0999 V2000
    4.3190  -30.4719   -7.6125 C   0  0  0  0  0  0  0  0  0  0  0  0
   12.1157  -26.2173   -9.3441 C   0  0  0  0  0  0  0  0  0  0  0  0
   13.3708  -26.8234   -9.3987 C   0  0  0  0  0  0  0  0  0  0  0  0
    4.8820  -29.1636   -7.5720 C   0  0  0  0  0  0  0  0  0  0  0  0
   13.0137  -27.3526  -11.7289 C   0  0  0  0  0  0  0  0  0  0  0  0
    4.0719  -30.8893   -8.9018 C   0  0  0  0  0  0  0  0  0  0  0  0
   11.3095  -26.1789  -10.4818 C   0  0  0  0  0  0  0  0  0  0  0  0
   13.8198  -27.3910  -10.5912 C   0  0  0  0  0  0  0  0  0  0  0  0
   11.7586  -26.7465  -11.6742 C   0  0  0  0  0  0  0  0  0  0  0  0
    5.0440  -28.6309   -8.8322 C   0  0  0  0  0  0  0  0  0  0  0  0
    6.8567  -27.1116   -9.4806 C   0  0  0  0  0  0  0  0  0  0  0  0
    7.9221  -28.1544   -9.4486 C   0  0  0  0  0  0  0  0  0  0  0  0
    9.0826  -26.3537  -10.0417 C   0  0  0  0  0  0  0  0  0  0  0  0
    5.5752  -27.3499   -9.2006 C   0  0  0  0  0  0  0  0  0  0  0  0
    9.1549  -27.6180   -9.7845 N   0  0  0  0  0  0  0  0  0  0  0  0
   10.1008  -25.5846  -10.3903 N   0  5  0  0  0  0  0  0  0  0  0  0
    7.7101  -29.3246   -9.1607 O   0  0  0  0  0  0  0  0  0  0  0  0
    4.5181  -29.7063  -10.0567 S   0  0  0  0  0  0  0  0  0  0  0  0
    7.5284  -25.5931   -9.9244 S   0  0  0  0  0  0  0  0  0  0  0  0
   15.3679  -28.1400  -10.6575 Cl  0  0  0  0  0  0  0  0  0  0  0  0
   10.8062  -26.7317  -13.1209 Cl  0  0  0  0  0  0  0  0  0  0  0  0
    4.1052  -31.0756   -6.7400 H   0  0  0  0  0  0  0  0  0  0  0  0
   11.7846  -25.7805   -8.4040 H   0  0  0  0  0  0  0  0  0  0  0  0
   13.9879  -26.8460   -8.5043 H   0  0  0  0  0  0  0  0  0  0  0  0
    5.1517  -28.6468   -6.6593 H   0  0  0  0  0  0  0  0  0  0  0  0
   13.3670  -27.7960  -12.6576 H   0  0  0  0  0  0  0  0  0  0  0  0
    3.6502  -31.8319   -9.2206 H   0  0  0  0  0  0  0  0  0  0  0  0
    4.8759  -26.5171   -9.2833 H   0  0  0  0  0  0  0  0  0  0  0  0
  1  4  1  0  0  0  0
  1  6  2  0  0  0  0
  2  3  2  0  0  0  0
  2  7  1  0  0  0  0
  3  8  1  0  0  0  0
  4 10  2  0  0  0  0
  5  8  2  0  0  0  0
  5  9  1  0  0  0  0
  6 18  1  0  0  0  0
  7  9  2  0  0  0  0
  7 16  1  0  0  0  0
  8 20  1  0  0  0  0
  9 21  1  0  0  0  0
 10 14  1  0  0  0  0
 10 18  1  0  0  0  0
 11 12  1  0  0  0  0
 11 14  2  0  0  0  0
 11 19  1  0  0  0  0
 12 15  1  0  0  0  0
 12 17  2  0  0  0  0
 13 15  2  0  0  0  0
 13 16  1  0  0  0  0
 13 19  1  0  0  0  0
  1 22  1  0  0  0  0
  2 23  1  0  0  0  0
  3 24  1  0  0  0  0
  4 25  1  0  0  0  0
  5 26  1  0  0  0  0
  6 27  1  0  0  0  0
 14 28  1  0  0  0  0
M  CHG  1  16  -1
M  END
> <Hybrid2>
-6.001401424407959

> <Hybrid2>
-6.001401

$$$$
C18158215
  -OEChem-02152218513D

 28 30  0     0  0  0  0  0  0999 V2000
    4.9337  -30.2882   -7.1830 C   0  0  0  0  0  0  0  0  0  0  0  0
   11.9391  -26.7778  -10.0612 C   0  0  0  0  0  0  0  0  0  0  0  0
   13.2025  -27.3555   -9.9367 C   0  0  0  0  0  0  0  0  0  0  0  0
    5.8318  -29.2095   -7.4280 C   0  0  0  0  0  0  0  0  0  0  0  0
   13.3068  -27.6440  -12.3331 C   0  0  0  0  0  0  0  0  0  0  0  0
    3.7920  -30.1948   -7.9480 C   0  0  0  0  0  0  0  0  0  0  0  0
   11.3595  -26.6332  -11.3217 C   0  0  0  0  0  0  0  0  0  0  0  0
   13.8864  -27.7887  -11.0726 C   0  0  0  0  0  0  0  0  0  0  0  0
   12.0434  -27.0663  -12.4577 C   0  0  0  0  0  0  0  0  0  0  0  0
    5.3424  -28.3328   -8.3712 C   0  0  0  0  0  0  0  0  0  0  0  0
    7.1069  -27.0958   -9.5423 C   0  0  0  0  0  0  0  0  0  0  0  0
    7.9353  -28.2986   -9.8429 C   0  0  0  0  0  0  0  0  0  0  0  0
    9.1538  -26.6811  -10.7596 C   0  0  0  0  0  0  0  0  0  0  0  0
    5.9495  -27.1371   -8.8817 C   0  0  0  0  0  0  0  0  0  0  0  0
    9.0815  -27.9526  -10.5407 N   0  0  0  0  0  0  0  0  0  0  0  0
   10.1351  -26.0703  -11.4027 N   0  5  0  0  0  0  0  0  0  0  0  0
    7.6221  -29.4327   -9.5070 O   0  0  0  0  0  0  0  0  0  0  0  0
    3.8059  -28.8111   -8.9567 S   0  0  0  0  0  0  0  0  0  0  0  0
    7.8637  -25.6849  -10.1670 S   0  0  0  0  0  0  0  0  0  0  0  0
   15.4446  -28.5029  -10.9181 Cl  0  0  0  0  0  0  0  0  0  0  0  0
   11.3789  -26.9152  -14.0501 Cl  0  0  0  0  0  0  0  0  0  0  0  0
    5.1155  -31.0911   -6.4805 H   0  0  0  0  0  0  0  0  0  0  0  0
   11.4229  -26.4465   -9.1624 H   0  0  0  0  0  0  0  0  0  0  0  0
   13.6417  -27.4619   -8.9481 H   0  0  0  0  0  0  0  0  0  0  0  0
    6.7874  -29.0908   -6.9323 H   0  0  0  0  0  0  0  0  0  0  0  0
   13.8431  -27.9827  -13.2173 H   0  0  0  0  0  0  0  0  0  0  0  0
    2.9502  -30.8725   -7.9624 H   0  0  0  0  0  0  0  0  0  0  0  0
    5.4125  -26.1981   -8.7426 H   0  0  0  0  0  0  0  0  0  0  0  0
  1  4  1  0  0  0  0
  1  6  2  0  0  0  0
  2  3  2  0  0  0  0
  2  7  1  0  0  0  0
  3  8  1  0  0  0  0
  4 10  2  0  0  0  0
  5  8  2  0  0  0  0
  5  9  1  0  0  0  0
  6 18  1  0  0  0  0
  7  9  2  0  0  0  0
  7 16  1  0  0  0  0
  8 20  1  0  0  0  0
  9 21  1  0  0  0  0
 10 14  1  0  0  0  0
 10 18  1  0  0  0  0
 11 12  1  0  0  0  0
 11 14  2  0  0  0  0
 11 19  1  0  0  0  0
 12 15  1  0  0  0  0
 12 17  2  0  0  0  0
 13 15  2  0  0  0  0
 13 16  1  0  0  0  0
 13 19  1  0  0  0  0
  1 22  1  0  0  0  0
  2 23  1  0  0  0  0
  3 24  1  0  0  0  0
  4 25  1  0  0  0  0
  5 26  1  0  0  0  0
  6 27  1  0  0  0  0
 14 28  1  0  0  0  0
M  CHG  1  16  -1
M  END
> <Hybrid2>
-6.001401424407959

> <Hybrid2>
-5.978419

$$$$
C25365317
  -OEChem-02152218513D

 32 33  0     0  0  0  0  0  0999 V2000
    5.2215  -27.2540   -8.7934 C   0  0  0  0  0  0  0  0  0  0  0  0
    5.7724  -28.4823   -8.4282 C   0  0  0  0  0  0  0  0  0  0  0  0
   12.2247  -26.7716   -9.6017 C   0  0  0  0  0  0  0  0  0  0  0  0
    5.8701  -26.4496   -9.7304 C   0  0  0  0  0  0  0  0  0  0  0  0
   11.0010  -26.1026   -9.6259 C   0  0  0  0  0  0  0  0  0  0  0  0
    7.6208  -28.1017   -9.9367 C   0  0  0  0  0  0  0  0  0  0  0  0
   12.1657  -26.9668  -12.0091 C   0  0  0  0  0  0  0  0  0  0  0  0
    6.9721  -28.9061   -8.9998 C   0  0  0  0  0  0  0  0  0  0  0  0
   12.8071  -27.2037  -10.7933 C   0  0  0  0  0  0  0  0  0  0  0  0
    7.0698  -26.8734  -10.3020 C   0  0  0  0  0  0  0  0  0  0  0  0
   10.3596  -25.8657  -10.8417 C   0  0  0  0  0  0  0  0  0  0  0  0
   10.9419  -26.2978  -12.0333 C   0  0  0  0  0  0  0  0  0  0  0  0
   14.1156  -27.9186  -10.7665 C   0  0  0  0  0  0  0  0  0  0  0  0
    7.5605  -30.2196   -8.6089 C   0  0  0  0  0  0  0  0  0  0  0  0
    7.6957  -26.0965  -11.2072 N   0  5  0  0  0  0  0  0  0  0  0  0
    8.7090  -24.5237   -9.4280 O   0  0  0  0  0  0  0  0  0  0  0  0
    8.9848  -23.9379  -11.7960 O   0  0  0  0  0  0  0  0  0  0  0  0
    6.8187  -30.8984   -7.6842 F   0  0  0  0  0  0  0  0  0  0  0  0
    7.7059  -31.0864   -9.6544 F   0  0  0  0  0  0  0  0  0  0  0  0
    8.8042  -30.0955   -8.0605 F   0  0  0  0  0  0  0  0  0  0  0  0
    8.7802  -24.9961  -10.8091 S   0  0  0  0  0  0  0  0  0  0  0  0
   10.1893  -26.0285  -13.5642 Cl  0  0  0  0  0  0  0  0  0  0  0  0
    4.2876  -26.9239   -8.3480 H   0  0  0  0  0  0  0  0  0  0  0  0
    5.2601  -29.1022   -7.6971 H   0  0  0  0  0  0  0  0  0  0  0  0
   12.7184  -26.9510   -8.6504 H   0  0  0  0  0  0  0  0  0  0  0  0
    5.4249  -25.4950  -10.0025 H   0  0  0  0  0  0  0  0  0  0  0  0
   10.5591  -25.7699   -8.6905 H   0  0  0  0  0  0  0  0  0  0  0  0
    8.5565  -28.4414  -10.3774 H   0  0  0  0  0  0  0  0  0  0  0  0
   12.6265  -27.3070  -12.9340 H   0  0  0  0  0  0  0  0  0  0  0  0
   13.9581  -29.0002  -10.6746 H   0  0  0  0  0  0  0  0  0  0  0  0
   14.6929  -27.7275  -11.6804 H   0  0  0  0  0  0  0  0  0  0  0  0
   14.7351  -27.5843   -9.9240 H   0  0  0  0  0  0  0  0  0  0  0  0
  1  2  1  0  0  0  0
  1  4  2  0  0  0  0
  2  8  2  0  0  0  0
  3  5  2  0  0  0  0
  3  9  1  0  0  0  0
  4 10  1  0  0  0  0
  5 11  1  0  0  0  0
  6  8  1  0  0  0  0
  6 10  2  0  0  0  0
  7  9  2  0  0  0  0
  7 12  1  0  0  0  0
  8 14  1  0  0  0  0
  9 13  1  0  0  0  0
 10 15  1  0  0  0  0
 11 12  2  0  0  0  0
 11 21  1  0  0  0  0
 12 22  1  0  0  0  0
 14 18  1  0  0  0  0
 14 19  1  0  0  0  0
 14 20  1  0  0  0  0
 15 21  1  0  0  0  0
 16 21  2  0  0  0  0
 17 21  2  0  0  0  0
  1 23  1  0  0  0  0
  2 24  1  0  0  0  0
  3 25  1  0  0  0  0
  4 26  1  0  0  0  0
  5 27  1  0  0  0  0
  6 28  1  0  0  0  0
  7 29  1  0  0  0  0
 13 30  1  0  0  0  0
 13 31  1  0  0  0  0
 13 32  1  0  0  0  0
M  CHG  1  15  -1
M  END
> <Hybrid2>
-5.14851713180542

> <Hybrid2>
-5.148517

$$$$
C25365317
  -OEChem-02152218513D

 32 33  0     0  0  0  0  0  0999 V2000
    8.4139  -30.3289   -9.1000 C   0  0  0  0  0  0  0  0  0  0  0  0
    7.1426  -30.1105   -8.5693 C   0  0  0  0  0  0  0  0  0  0  0  0
   13.2536  -27.3518   -9.5447 C   0  0  0  0  0  0  0  0  0  0  0  0
    8.9493  -29.4285  -10.0211 C   0  0  0  0  0  0  0  0  0  0  0  0
   11.9372  -26.8956   -9.6128 C   0  0  0  0  0  0  0  0  0  0  0  0
    6.9420  -28.0914   -9.8808 C   0  0  0  0  0  0  0  0  0  0  0  0
   13.3074  -27.5555  -11.9515 C   0  0  0  0  0  0  0  0  0  0  0  0
    6.4066  -28.9918   -8.9597 C   0  0  0  0  0  0  0  0  0  0  0  0
   13.9387  -27.6817  -10.7141 C   0  0  0  0  0  0  0  0  0  0  0  0
    8.2133  -28.3098  -10.4115 C   0  0  0  0  0  0  0  0  0  0  0  0
   11.3059  -26.7694  -10.8502 C   0  0  0  0  0  0  0  0  0  0  0  0
   11.9910  -27.0993  -12.0196 C   0  0  0  0  0  0  0  0  0  0  0  0
   15.3462  -28.1690  -10.6405 C   0  0  0  0  0  0  0  0  0  0  0  0
    5.0475  -28.7588   -8.3916 C   0  0  0  0  0  0  0  0  0  0  0  0
    8.7310  -27.4402  -11.3006 N   0  5  0  0  0  0  0  0  0  0  0  0
    9.4095  -25.7198   -9.4990 O   0  0  0  0  0  0  0  0  0  0  0  0
    9.6621  -25.0976  -11.8603 O   0  0  0  0  0  0  0  0  0  0  0  0
    4.6531  -29.7192   -7.5039 F   0  0  0  0  0  0  0  0  0  0  0  0
    4.9332  -27.5788   -7.7133 F   0  0  0  0  0  0  0  0  0  0  0  0
    4.0763  -28.7256   -9.3501 F   0  0  0  0  0  0  0  0  0  0  0  0
    9.6037  -26.1745  -10.8742 S   0  0  0  0  0  0  0  0  0  0  0  0
   11.2551  -26.9598  -13.5757 Cl  0  0  0  0  0  0  0  0  0  0  0  0
    8.9867  -31.2002   -8.7963 H   0  0  0  0  0  0  0  0  0  0  0  0
    6.7334  -30.8175   -7.8524 H   0  0  0  0  0  0  0  0  0  0  0  0
   13.7385  -27.4460   -8.5769 H   0  0  0  0  0  0  0  0  0  0  0  0
    9.9423  -29.6159  -10.4239 H   0  0  0  0  0  0  0  0  0  0  0  0
   11.4155  -26.6405   -8.6942 H   0  0  0  0  0  0  0  0  0  0  0  0
    6.3599  -27.2210  -10.1789 H   0  0  0  0  0  0  0  0  0  0  0  0
   13.8487  -27.8148  -12.8589 H   0  0  0  0  0  0  0  0  0  0  0  0
   15.3678  -29.2617  -10.5473 H   0  0  0  0  0  0  0  0  0  0  0  0
   15.9137  -27.8851  -11.5364 H   0  0  0  0  0  0  0  0  0  0  0  0
   15.8734  -27.7359   -9.7804 H   0  0  0  0  0  0  0  0  0  0  0  0
  1  2  1  0  0  0  0
  1  4  2  0  0  0  0
  2  8  2  0  0  0  0
  3  5  2  0  0  0  0
  3  9  1  0  0  0  0
  4 10  1  0  0  0  0
  5 11  1  0  0  0  0
  6  8  1  0  0  0  0
  6 10  2  0  0  0  0
  7  9  2  0  0  0  0
  7 12  1  0  0  0  0
  8 14  1  0  0  0  0
  9 13  1  0  0  0  0
 10 15  1  0  0  0  0
 11 12  2  0  0  0  0
 11 21  1  0  0  0  0
 12 22  1  0  0  0  0
 14 18  1  0  0  0  0
 14 19  1  0  0  0  0
 14 20  1  0  0  0  0
 15 21  1  0  0  0  0
 16 21  2  0  0  0  0
 17 21  2  0  0  0  0
  1 23  1  0  0  0  0
  2 24  1  0  0  0  0
  3 25  1  0  0  0  0
  4 26  1  0  0  0  0
  5 27  1  0  0  0  0
  6 28  1  0  0  0  0
  7 29  1  0  0  0  0
 13 30  1  0  0  0  0
 13 31  1  0  0  0  0
 13 32  1  0  0  0  0
M  CHG  1  15  -1
M  END
> <Hybrid2>
-5.14851713180542

> <Hybrid2>
-5.018671

$$$$
C58732665
  -OEChem-02152218513D

 34 36  0     0  0  0  0  0  0999 V2000
   12.6994  -27.0816  -11.5465 C   0  0  0  0  0  0  0  0  0  0  0  0
   13.1704  -27.0700   -9.1769 C   0  0  0  0  0  0  0  0  0  0  0  0
   13.9695  -27.6011  -11.7964 C   0  0  0  0  0  0  0  0  0  0  0  0
   14.4405  -27.5895   -9.4268 C   0  0  0  0  0  0  0  0  0  0  0  0
    4.9818  -30.0846   -7.7961 C   0  0  0  0  0  0  0  0  0  0  0  0
    4.3133  -31.3226   -8.0213 C   0  0  0  0  0  0  0  0  0  0  0  0
   12.2998  -26.8160  -10.2367 C   0  0  0  0  0  0  0  0  0  0  0  0
   14.8401  -27.8551  -10.7366 C   0  0  0  0  0  0  0  0  0  0  0  0
    4.5847  -29.1125   -8.6877 C   0  0  0  0  0  0  0  0  0  0  0  0
    3.4304  -31.2494   -9.0763 C   0  0  0  0  0  0  0  0  0  0  0  0
    6.2783  -27.3724   -9.0324 C   0  0  0  0  0  0  0  0  0  0  0  0
    6.7147  -25.9522   -9.1252 C   0  0  0  0  0  0  0  0  0  0  0  0
    8.6353  -27.0205   -9.5043 C   0  0  0  0  0  0  0  0  0  0  0  0
    5.0246  -27.7498   -8.7810 C   0  0  0  0  0  0  0  0  0  0  0  0
   10.0548  -27.2685   -9.7871 C   0  0  0  0  0  0  0  0  0  0  0  0
   10.9750  -26.2750   -9.9755 C   0  0  0  0  0  0  0  0  0  0  0  0
    2.5524  -32.3097   -9.6172 C   0  0  0  0  0  0  0  0  0  0  0  0
    8.0694  -25.8640   -9.3961 N   0  0  0  0  0  0  0  0  0  0  0  0
   10.7733  -25.0058   -9.9421 O   0  5  0  0  0  0  0  0  0  0  0  0
    5.9561  -25.0038   -8.9772 O   0  0  0  0  0  0  0  0  0  0  0  0
    3.4104  -29.6932   -9.7905 S   0  0  0  0  0  0  0  0  0  0  0  0
    7.6146  -28.4172   -9.2943 S   0  0  0  0  0  0  0  0  0  0  0  0
   16.4068  -28.4960  -11.0453 Cl  0  0  0  0  0  0  0  0  0  0  0  0
   12.0316  -26.8882  -12.3827 H   0  0  0  0  0  0  0  0  0  0  0  0
   12.8726  -26.8681   -8.1507 H   0  0  0  0  0  0  0  0  0  0  0  0
   14.2669  -27.8036  -12.8223 H   0  0  0  0  0  0  0  0  0  0  0  0
   15.1084  -27.7824   -8.5911 H   0  0  0  0  0  0  0  0  0  0  0  0
    5.7158  -29.9237   -7.0163 H   0  0  0  0  0  0  0  0  0  0  0  0
    4.4739  -32.2190   -7.4357 H   0  0  0  0  0  0  0  0  0  0  0  0
    4.2742  -26.9670   -8.6641 H   0  0  0  0  0  0  0  0  0  0  0  0
   10.3342  -28.3177   -9.8385 H   0  0  0  0  0  0  0  0  0  0  0  0
    1.5717  -32.3030   -9.1164 H   0  0  0  0  0  0  0  0  0  0  0  0
    2.3800  -32.1881  -10.6991 H   0  0  0  0  0  0  0  0  0  0  0  0
    2.9913  -33.3125   -9.4869 H   0  0  0  0  0  0  0  0  0  0  0  0
  1  3  2  0  0  0  0
  1  7  1  0  0  0  0
  2  4  1  0  0  0  0
  2  7  2  0  0  0  0
  3  8  1  0  0  0  0
  4  8  2  0  0  0  0
  5  6  1  0  0  0  0
  5  9  2  0  0  0  0
  6 10  2  0  0  0  0
  7 16  1  0  0  0  0
  8 23  1  0  0  0  0
  9 14  1  0  0  0  0
  9 21  1  0  0  0  0
 10 17  1  0  0  0  0
 10 21  1  0  0  0  0
 11 12  1  0  0  0  0
 11 14  2  0  0  0  0
 11 22  1  0  0  0  0
 12 18  1  0  0  0  0
 12 20  2  0  0  0  0
 13 15  1  0  0  0  0
 13 18  2  0  0  0  0
 13 22  1  0  0  0  0
 15 16  2  0  0  0  0
 16 19  1  0  0  0  0
  1 24  1  0  0  0  0
  2 25  1  0  0  0  0
  3 26  1  0  0  0  0
  4 27  1  0  0  0  0
  5 28  1  0  0  0  0
  6 29  1  0  0  0  0
 14 30  1  0  0  0  0
 15 31  1  0  0  0  0
 17 32  1  0  0  0  0
 17 33  1  0  0  0  0
 17 34  1  0  0  0  0
M  CHG  1  19  -1
M  END
> <Hybrid2>
-6.129251003265381

> <Hybrid2>
-6.129251

$$$$
C58732665
  -OEChem-02152218513D

 34 36  0     0  0  0  0  0  0999 V2000
   12.2533  -26.8752  -11.4966 C   0  0  0  0  0  0  0  0  0  0  0  0
   12.6082  -26.4836   -9.1392 C   0  0  0  0  0  0  0  0  0  0  0  0
   13.5509  -27.3743  -11.6091 C   0  0  0  0  0  0  0  0  0  0  0  0
   13.9059  -26.9827   -9.2516 C   0  0  0  0  0  0  0  0  0  0  0  0
    3.4428  -29.2683   -7.5918 C   0  0  0  0  0  0  0  0  0  0  0  0
    3.2148  -30.6720   -7.6795 C   0  0  0  0  0  0  0  0  0  0  0  0
   11.7820  -26.4298  -10.2617 C   0  0  0  0  0  0  0  0  0  0  0  0
   14.3772  -27.4281  -10.4866 C   0  0  0  0  0  0  0  0  0  0  0  0
    4.0831  -28.7773   -8.7083 C   0  0  0  0  0  0  0  0  0  0  0  0
    3.6894  -31.2005   -8.8599 C   0  0  0  0  0  0  0  0  0  0  0  0
    5.7315  -27.0422   -9.2442 C   0  0  0  0  0  0  0  0  0  0  0  0
    6.1235  -25.6361   -9.5359 C   0  0  0  0  0  0  0  0  0  0  0  0
    8.0953  -26.6701   -9.6636 C   0  0  0  0  0  0  0  0  0  0  0  0
    4.4806  -27.4279   -8.9914 C   0  0  0  0  0  0  0  0  0  0  0  0
    9.5344  -26.9000   -9.8440 C   0  0  0  0  0  0  0  0  0  0  0  0
   10.4285  -25.9100  -10.1437 C   0  0  0  0  0  0  0  0  0  0  0  0
    3.6419  -32.6037   -9.3251 C   0  0  0  0  0  0  0  0  0  0  0  0
    7.4860  -25.5348   -9.7591 N   0  0  0  0  0  0  0  0  0  0  0  0
   10.1825  -24.6599  -10.3148 O   0  5  0  0  0  0  0  0  0  0  0  0
    5.3269  -24.7080   -9.5683 O   0  0  0  0  0  0  0  0  0  0  0  0
    4.4067  -30.0064   -9.8559 S   0  0  0  0  0  0  0  0  0  0  0  0
    7.1135  -28.0592   -9.2848 S   0  0  0  0  0  0  0  0  0  0  0  0
   15.9779  -28.0439  -10.6258 Cl  0  0  0  0  0  0  0  0  0  0  0  0
   11.6206  -26.8388  -12.3804 H   0  0  0  0  0  0  0  0  0  0  0  0
   12.2544  -26.1401   -8.1700 H   0  0  0  0  0  0  0  0  0  0  0  0
   13.9044  -27.7183  -12.5779 H   0  0  0  0  0  0  0  0  0  0  0  0
   14.5386  -27.0185   -8.3684 H   0  0  0  0  0  0  0  0  0  0  0  0
    3.1479  -28.6566   -6.7482 H   0  0  0  0  0  0  0  0  0  0  0  0
    2.7257  -31.2606   -6.9135 H   0  0  0  0  0  0  0  0  0  0  0  0
    3.6993  -26.6678   -9.0287 H   0  0  0  0  0  0  0  0  0  0  0  0
    9.8513  -27.9325   -9.7212 H   0  0  0  0  0  0  0  0  0  0  0  0
    2.7199  -32.7992   -9.8947 H   0  0  0  0  0  0  0  0  0  0  0  0
    4.4983  -32.8507   -9.9737 H   0  0  0  0  0  0  0  0  0  0  0  0
    3.6774  -33.3164   -8.4849 H   0  0  0  0  0  0  0  0  0  0  0  0
  1  3  2  0  0  0  0
  1  7  1  0  0  0  0
  2  4  1  0  0  0  0
  2  7  2  0  0  0  0
  3  8  1  0  0  0  0
  4  8  2  0  0  0  0
  5  6  1  0  0  0  0
  5  9  2  0  0  0  0
  6 10  2  0  0  0  0
  7 16  1  0  0  0  0
  8 23  1  0  0  0  0
  9 14  1  0  0  0  0
  9 21  1  0  0  0  0
 10 17  1  0  0  0  0
 10 21  1  0  0  0  0
 11 12  1  0  0  0  0
 11 14  2  0  0  0  0
 11 22  1  0  0  0  0
 12 18  1  0  0  0  0
 12 20  2  0  0  0  0
 13 15  1  0  0  0  0
 13 18  2  0  0  0  0
 13 22  1  0  0  0  0
 15 16  2  0  0  0  0
 16 19  1  0  0  0  0
  1 24  1  0  0  0  0
  2 25  1  0  0  0  0
  3 26  1  0  0  0  0
  4 27  1  0  0  0  0
  5 28  1  0  0  0  0
  6 29  1  0  0  0  0
 14 30  1  0  0  0  0
 15 31  1  0  0  0  0
 17 32  1  0  0  0  0
 17 33  1  0  0  0  0
 17 34  1  0  0  0  0
M  CHG  1  19  -1
M  END
> <Hybrid2>
-6.129251003265381

> <Hybrid2>
-5.323639

$$$$
C59269731
  -OEChem-02152218513D

 34 36  0     0  0  0  0  0  0999 V2000
   14.6779  -27.8681  -10.6435 C   0  0  0  0  0  0  0  0  0  0  0  0
   13.9375  -27.2292   -9.6489 C   0  0  0  0  0  0  0  0  0  0  0  0
   14.2321  -27.8501  -11.9651 C   0  0  0  0  0  0  0  0  0  0  0  0
   12.7511  -26.5724   -9.9759 C   0  0  0  0  0  0  0  0  0  0  0  0
    4.2480  -29.4388   -8.0682 C   0  0  0  0  0  0  0  0  0  0  0  0
    4.0562  -28.6054   -9.1701 C   0  0  0  0  0  0  0  0  0  0  0  0
    6.2444  -28.2091   -7.4857 C   0  0  0  0  0  0  0  0  0  0  0  0
    6.0526  -27.3757   -8.5876 C   0  0  0  0  0  0  0  0  0  0  0  0
   13.0457  -27.1933  -12.2921 C   0  0  0  0  0  0  0  0  0  0  0  0
   12.3053  -26.5544  -11.2975 C   0  0  0  0  0  0  0  0  0  0  0  0
    5.3421  -29.2407   -7.2260 C   0  0  0  0  0  0  0  0  0  0  0  0
    4.9584  -27.5739   -9.4299 C   0  0  0  0  0  0  0  0  0  0  0  0
    8.0590  -26.4335   -9.6373 C   0  0  0  0  0  0  0  0  0  0  0  0
    8.4194  -27.6965  -10.3434 C   0  0  0  0  0  0  0  0  0  0  0  0
   10.0591  -26.3429  -10.9919 C   0  0  0  0  0  0  0  0  0  0  0  0
    6.9972  -26.3021   -8.8541 C   0  0  0  0  0  0  0  0  0  0  0  0
   12.6047  -27.1989  -13.7222 C   0  0  0  0  0  0  0  0  0  0  0  0
    9.5766  -27.5378  -11.0891 N   0  0  0  0  0  0  0  0  0  0  0  0
   11.1478  -25.9104  -11.5927 N   0  5  0  0  0  0  0  0  0  0  0  0
    7.7625  -28.7253  -10.2598 O   0  0  0  0  0  0  0  0  0  0  0  0
    5.5265  -30.0413   -6.1681 F   0  0  0  0  0  0  0  0  0  0  0  0
    4.7602  -26.7810  -10.4932 F   0  0  0  0  0  0  0  0  0  0  0  0
    9.2107  -25.2081   -9.9917 S   0  0  0  0  0  0  0  0  0  0  0  0
   15.6012  -28.3798  -10.3887 H   0  0  0  0  0  0  0  0  0  0  0  0
   14.2855  -27.2435   -8.6203 H   0  0  0  0  0  0  0  0  0  0  0  0
   14.8172  -28.3510  -12.7320 H   0  0  0  0  0  0  0  0  0  0  0  0
   12.1886  -26.0800   -9.1854 H   0  0  0  0  0  0  0  0  0  0  0  0
    3.5459  -30.2422   -7.8658 H   0  0  0  0  0  0  0  0  0  0  0  0
    3.2041  -28.7596   -9.8255 H   0  0  0  0  0  0  0  0  0  0  0  0
    7.0925  -28.0682   -6.8200 H   0  0  0  0  0  0  0  0  0  0  0  0
    6.7910  -25.3458   -8.4022 H   0  0  0  0  0  0  0  0  0  0  0  0
   11.9676  -28.0681  -13.9166 H   0  0  0  0  0  0  0  0  0  0  0  0
   12.0432  -26.2895  -13.9642 H   0  0  0  0  0  0  0  0  0  0  0  0
   13.4659  -27.2349  -14.3991 H   0  0  0  0  0  0  0  0  0  0  0  0
  1  2  1  0  0  0  0
  1  3  2  0  0  0  0
  2  4  2  0  0  0  0
  3  9  1  0  0  0  0
  4 10  1  0  0  0  0
  5  6  2  0  0  0  0
  5 11  1  0  0  0  0
  6 12  1  0  0  0  0
  7  8  1  0  0  0  0
  7 11  2  0  0  0  0
  8 12  2  0  0  0  0
  8 16  1  0  0  0  0
  9 10  2  0  0  0  0
  9 17  1  0  0  0  0
 10 19  1  0  0  0  0
 11 21  1  0  0  0  0
 12 22  1  0  0  0  0
 13 14  1  0  0  0  0
 13 16  2  0  0  0  0
 13 23  1  0  0  0  0
 14 18  1  0  0  0  0
 14 20  2  0  0  0  0
 15 18  2  0  0  0  0
 15 19  1  0  0  0  0
 15 23  1  0  0  0  0
  1 24  1  0  0  0  0
  2 25  1  0  0  0  0
  3 26  1  0  0  0  0
  4 27  1  0  0  0  0
  5 28  1  0  0  0  0
  6 29  1  0  0  0  0
  7 30  1  0  0  0  0
 16 31  1  0  0  0  0
 17 32  1  0  0  0  0
 17 33  1  0  0  0  0
 17 34  1  0  0  0  0
M  CHG  1  19  -1
M  END
> <Hybrid2>
-4.344067573547363

> <Hybrid2>
-4.344068

$$$$
C59269731
  -OEChem-02152218513D

 34 36  0     0  0  0  0  0  0999 V2000
    6.1159  -30.0929   -7.6441 C   0  0  0  0  0  0  0  0  0  0  0  0
    6.8544  -30.3850   -8.7908 C   0  0  0  0  0  0  0  0  0  0  0  0
    5.8500  -28.7663   -7.3049 C   0  0  0  0  0  0  0  0  0  0  0  0
    7.3272  -29.3506   -9.5982 C   0  0  0  0  0  0  0  0  0  0  0  0
   16.0276  -26.5187  -10.2642 C   0  0  0  0  0  0  0  0  0  0  0  0
   15.3025  -25.3917  -10.6508 C   0  0  0  0  0  0  0  0  0  0  0  0
   14.2056  -27.9358  -10.9780 C   0  0  0  0  0  0  0  0  0  0  0  0
   13.4805  -26.8087  -11.3646 C   0  0  0  0  0  0  0  0  0  0  0  0
    6.3229  -27.7318   -8.1123 C   0  0  0  0  0  0  0  0  0  0  0  0
    7.0615  -28.0239   -9.2590 C   0  0  0  0  0  0  0  0  0  0  0  0
   15.4792  -27.7908  -10.4278 C   0  0  0  0  0  0  0  0  0  0  0  0
   14.0289  -25.5366  -11.2010 C   0  0  0  0  0  0  0  0  0  0  0  0
   11.0362  -26.9509  -11.2216 C   0  0  0  0  0  0  0  0  0  0  0  0
   11.0001  -26.7713   -9.7418 C   0  0  0  0  0  0  0  0  0  0  0  0
    8.8376  -26.9698  -10.2168 C   0  0  0  0  0  0  0  0  0  0  0  0
   12.1524  -26.9659  -11.9370 C   0  0  0  0  0  0  0  0  0  0  0  0
    6.0145  -26.3234   -7.7110 C   0  0  0  0  0  0  0  0  0  0  0  0
    9.6980  -26.7973   -9.2682 N   0  0  0  0  0  0  0  0  0  0  0  0
    7.5322  -27.0334  -10.0583 N   0  5  0  0  0  0  0  0  0  0  0  0
   12.0031  -26.6218   -9.0572 O   0  0  0  0  0  0  0  0  0  0  0  0
   16.1754  -28.8731  -10.0561 F   0  0  0  0  0  0  0  0  0  0  0  0
   13.3443  -24.4434  -11.5679 F   0  0  0  0  0  0  0  0  0  0  0  0
    9.4408  -27.1311  -11.8349 S   0  0  0  0  0  0  0  0  0  0  0  0
    5.7482  -30.8984   -7.0154 H   0  0  0  0  0  0  0  0  0  0  0  0
    7.0606  -31.4183   -9.0543 H   0  0  0  0  0  0  0  0  0  0  0  0
    5.2733  -28.5504   -6.4093 H   0  0  0  0  0  0  0  0  0  0  0  0
    7.9011  -29.5997  -10.4884 H   0  0  0  0  0  0  0  0  0  0  0  0
   17.0191  -26.4063   -9.8356 H   0  0  0  0  0  0  0  0  0  0  0  0
   15.7297  -24.4014  -10.5238 H   0  0  0  0  0  0  0  0  0  0  0  0
   13.7920  -28.9342  -11.0983 H   0  0  0  0  0  0  0  0  0  0  0  0
   12.0908  -27.0724  -13.0075 H   0  0  0  0  0  0  0  0  0  0  0  0
    6.8046  -25.9357   -7.0593 H   0  0  0  0  0  0  0  0  0  0  0  0
    5.9318  -25.6733   -8.5893 H   0  0  0  0  0  0  0  0  0  0  0  0
    5.0586  -26.2668   -7.1777 H   0  0  0  0  0  0  0  0  0  0  0  0
  1  2  1  0  0  0  0
  1  3  2  0  0  0  0
  2  4  2  0  0  0  0
  3  9  1  0  0  0  0
  4 10  1  0  0  0  0
  5  6  2  0  0  0  0
  5 11  1  0  0  0  0
  6 12  1  0  0  0  0
  7  8  1  0  0  0  0
  7 11  2  0  0  0  0
  8 12  2  0  0  0  0
  8 16  1  0  0  0  0
  9 10  2  0  0  0  0
  9 17  1  0  0  0  0
 10 19  1  0  0  0  0
 11 21  1  0  0  0  0
 12 22  1  0  0  0  0
 13 14  1  0  0  0  0
 13 16  2  0  0  0  0
 13 23  1  0  0  0  0
 14 18  1  0  0  0  0
 14 20  2  0  0  0  0
 15 18  2  0  0  0  0
 15 19  1  0  0  0  0
 15 23  1  0  0  0  0
  1 24  1  0  0  0  0
  2 25  1  0  0  0  0
  3 26  1  0  0  0  0
  4 27  1  0  0  0  0
  5 28  1  0  0  0  0
  6 29  1  0  0  0  0
  7 30  1  0  0  0  0
 16 31  1  0  0  0  0
 17 32  1  0  0  0  0
 17 33  1  0  0  0  0
 17 34  1  0  0  0  0
M  CHG  1  19  -1
M  END
> <Hybrid2>
-4.344067573547363

> <Hybrid2>
-4.291416

$$$$
C20626889
  -OEChem-02152218513D

 26 27  0     0  0  0  0  0  0999 V2000
    7.1434  -30.7291   -8.2857 C   0  0  0  0  0  0  0  0  0  0  0  0
    8.0404  -30.7031   -9.3535 C   0  0  0  0  0  0  0  0  0  0  0  0
    6.3487  -29.6151   -8.0150 C   0  0  0  0  0  0  0  0  0  0  0  0
    8.1429  -29.5630  -10.1506 C   0  0  0  0  0  0  0  0  0  0  0  0
   11.1908  -27.0388  -10.5354 C   0  0  0  0  0  0  0  0  0  0  0  0
    6.4513  -28.4750   -8.8121 C   0  0  0  0  0  0  0  0  0  0  0  0
    7.3484  -28.4489   -9.8799 C   0  0  0  0  0  0  0  0  0  0  0  0
   10.0047  -26.6381  -11.2158 C   0  0  0  0  0  0  0  0  0  0  0  0
   12.2119  -27.3403  -11.4094 C   0  0  0  0  0  0  0  0  0  0  0  0
   10.1647  -26.6484  -12.5841 C   0  0  0  0  0  0  0  0  0  0  0  0
    5.5799  -27.3028   -8.4859 C   0  0  0  0  0  0  0  0  0  0  0  0
    7.4648  -27.3567  -10.6630 N   0  5  0  0  0  0  0  0  0  0  0  0
    8.9305  -26.0758   -8.9677 O   0  0  0  0  0  0  0  0  0  0  0  0
    8.1600  -24.8900  -10.9744 O   0  0  0  0  0  0  0  0  0  0  0  0
   11.7394  -27.1399  -13.0431 S   0  0  0  0  0  0  0  0  0  0  0  0
    8.4885  -26.1732  -10.3573 S   0  0  0  0  0  0  0  0  0  0  0  0
   13.8004  -27.8600  -11.0297 Cl  0  0  0  0  0  0  0  0  0  0  0  0
    9.0218  -26.2444  -13.7996 Cl  0  0  0  0  0  0  0  0  0  0  0  0
    7.0640  -31.6166   -7.6649 H   0  0  0  0  0  0  0  0  0  0  0  0
    8.6585  -31.5710   -9.5637 H   0  0  0  0  0  0  0  0  0  0  0  0
    5.6530  -29.6466   -7.1805 H   0  0  0  0  0  0  0  0  0  0  0  0
    8.8485  -29.5631  -10.9788 H   0  0  0  0  0  0  0  0  0  0  0  0
   11.2899  -27.1016   -9.4587 H   0  0  0  0  0  0  0  0  0  0  0  0
    6.0907  -26.6381   -7.7813 H   0  0  0  0  0  0  0  0  0  0  0  0
    5.3311  -26.7343   -9.3891 H   0  0  0  0  0  0  0  0  0  0  0  0
    4.6333  -27.6286   -8.0398 H   0  0  0  0  0  0  0  0  0  0  0  0
  1  2  1  0  0  0  0
  1  3  2  0  0  0  0
  2  4  2  0  0  0  0
  3  6  1  0  0  0  0
  4  7  1  0  0  0  0
  5  8  1  0  0  0  0
  5  9  2  0  0  0  0
  6  7  2  0  0  0  0
  6 11  1  0  0  0  0
  7 12  1  0  0  0  0
  8 10  2  0  0  0  0
  8 16  1  0  0  0  0
  9 15  1  0  0  0  0
  9 17  1  0  0  0  0
 10 15  1  0  0  0  0
 10 18  1  0  0  0  0
 12 16  1  0  0  0  0
 13 16  2  0  0  0  0
 14 16  2  0  0  0  0
  1 19  1  0  0  0  0
  2 20  1  0  0  0  0
  3 21  1  0  0  0  0
  4 22  1  0  0  0  0
  5 23  1  0  0  0  0
 11 24  1  0  0  0  0
 11 25  1  0  0  0  0
 11 26  1  0  0  0  0
M  CHG  1  12  -1
M  END
> <Hybrid2>
-5.8387885093688965

> <Hybrid2>
-5.838789

$$$$
C20626889
  -OEChem-02152218513D

 26 27  0     0  0  0  0  0  0999 V2000
    7.7490  -30.8904   -9.1857 C   0  0  0  0  0  0  0  0  0  0  0  0
    8.7144  -30.6748  -10.1690 C   0  0  0  0  0  0  0  0  0  0  0  0
    7.0631  -29.8089   -8.6327 C   0  0  0  0  0  0  0  0  0  0  0  0
    8.9941  -29.3778  -10.5993 C   0  0  0  0  0  0  0  0  0  0  0  0
   12.3166  -27.2438  -10.1343 C   0  0  0  0  0  0  0  0  0  0  0  0
    7.3428  -28.5119   -9.0630 C   0  0  0  0  0  0  0  0  0  0  0  0
    8.3083  -28.2963  -10.0463 C   0  0  0  0  0  0  0  0  0  0  0  0
   11.2303  -26.5241  -10.7106 C   0  0  0  0  0  0  0  0  0  0  0  0
   13.3565  -27.4098  -11.0225 C   0  0  0  0  0  0  0  0  0  0  0  0
   11.4814  -26.1673  -12.0174 C   0  0  0  0  0  0  0  0  0  0  0  0
    6.5832  -27.3813   -8.4428 C   0  0  0  0  0  0  0  0  0  0  0  0
    8.5956  -27.0504  -10.4766 N   0  5  0  0  0  0  0  0  0  0  0  0
   10.0721  -26.4914   -8.4344 O   0  0  0  0  0  0  0  0  0  0  0  0
    9.5736  -24.7016  -10.0390 O   0  0  0  0  0  0  0  0  0  0  0  0
   13.0213  -26.6996  -12.5442 S   0  0  0  0  0  0  0  0  0  0  0  0
    9.7183  -26.1372   -9.8074 S   0  0  0  0  0  0  0  0  0  0  0  0
   14.8496  -28.2075  -10.7543 Cl  0  0  0  0  0  0  0  0  0  0  0  0
   10.4748  -25.2988  -13.1034 Cl  0  0  0  0  0  0  0  0  0  0  0  0
    7.5316  -31.9002   -8.8504 H   0  0  0  0  0  0  0  0  0  0  0  0
    9.2478  -31.5174  -10.5992 H   0  0  0  0  0  0  0  0  0  0  0  0
    6.3126  -29.9888   -7.8673 H   0  0  0  0  0  0  0  0  0  0  0  0
    9.7506  -29.2311  -11.3675 H   0  0  0  0  0  0  0  0  0  0  0  0
   12.3345  -27.6198   -9.1188 H   0  0  0  0  0  0  0  0  0  0  0  0
    7.1136  -27.0110   -7.5593 H   0  0  0  0  0  0  0  0  0  0  0  0
    6.4599  -26.5548   -9.1517 H   0  0  0  0  0  0  0  0  0  0  0  0
    5.5786  -27.7004   -8.1426 H   0  0  0  0  0  0  0  0  0  0  0  0
  1  2  1  0  0  0  0
  1  3  2  0  0  0  0
  2  4  2  0  0  0  0
  3  6  1  0  0  0  0
  4  7  1  0  0  0  0
  5  8  1  0  0  0  0
  5  9  2  0  0  0  0
  6  7  2  0  0  0  0
  6 11  1  0  0  0  0
  7 12  1  0  0  0  0
  8 10  2  0  0  0  0
  8 16  1  0  0  0  0
  9 15  1  0  0  0  0
  9 17  1  0  0  0  0
 10 15  1  0  0  0  0
 10 18  1  0  0  0  0
 12 16  1  0  0  0  0
 13 16  2  0  0  0  0
 14 16  2  0  0  0  0
  1 19  1  0  0  0  0
  2 20  1  0  0  0  0
  3 21  1  0  0  0  0
  4 22  1  0  0  0  0
  5 23  1  0  0  0  0
 11 24  1  0  0  0  0
 11 25  1  0  0  0  0
 11 26  1  0  0  0  0
M  CHG  1  12  -1
M  END
> <Hybrid2>
-5.8387885093688965

> <Hybrid2>
-5.451498

$$$$
C61588828
  -OEChem-02152218513D

 44 45  0     1  0  0  0  0  0999 V2000
    8.5459  -28.7118   -9.0933 C   0  0  0  0  0  0  0  0  0  0  0  0
    9.3184  -27.6090   -9.4575 C   0  0  0  0  0  0  0  0  0  0  0  0
    6.5458  -27.3676   -9.2653 C   0  0  0  0  0  0  0  0  0  0  0  0
    7.1596  -28.5911   -8.9973 C   0  0  0  0  0  0  0  0  0  0  0  0
    7.3183  -26.2647   -9.6294 C   0  0  0  0  0  0  0  0  0  0  0  0
    8.7046  -26.3855   -9.7255 C   0  0  0  0  0  0  0  0  0  0  0  0
   10.3912  -24.0406  -11.8374 C   0  0  0  0  0  0  0  0  0  0  0  0
   10.2630  -26.6253  -13.5607 C   0  0  0  0  0  0  0  0  0  0  0  0
    9.5347  -26.3633  -12.2393 C   0  0  0  0  0  0  0  0  0  0  0  0
   11.7856  -26.5808  -13.5018 C   0  0  0  0  0  0  0  0  0  0  0  0
   11.6618  -25.9307  -10.8338 C   0  0  0  0  0  0  0  0  0  0  0  0
   10.2711  -25.4481  -11.2635 C   0  0  1  0  0  0  0  0  0  0  0  0
    6.3341  -29.7709   -8.6093 C   0  0  0  0  0  0  0  0  0  0  0  0
    5.0990  -25.0783   -9.7418 C   0  0  0  0  0  0  0  0  0  0  0  0
    6.9227  -24.4912  -11.3744 C   0  0  0  0  0  0  0  0  0  0  0  0
    7.0791  -23.7702   -9.0002 C   0  0  0  0  0  0  0  0  0  0  0  0
    6.6447  -24.9629   -9.9141 C   0  0  0  0  0  0  0  0  0  0  0  0
   10.9876  -23.2071  -11.1007 O   0  5  0  0  0  0  0  0  0  0  0  0
    9.8764  -23.8890  -12.9808 O   0  0  0  0  0  0  0  0  0  0  0  0
    9.4797  -25.3113  -10.0807 O   0  0  0  0  0  0  0  0  0  0  0  0
   12.4229  -27.1827  -11.9201 S   0  0  0  0  0  0  0  0  0  0  0  0
    9.0322  -29.6616   -8.8869 H   0  0  0  0  0  0  0  0  0  0  0  0
   10.3977  -27.7110   -9.5322 H   0  0  0  0  0  0  0  0  0  0  0  0
    5.4648  -27.2746   -9.1905 H   0  0  0  0  0  0  0  0  0  0  0  0
    9.9302  -27.5955  -13.9881 H   0  0  0  0  0  0  0  0  0  0  0  0
    9.9217  -25.8694  -14.2984 H   0  0  0  0  0  0  0  0  0  0  0  0
    8.5298  -25.9551  -12.4647 H   0  0  0  0  0  0  0  0  0  0  0  0
    9.3523  -27.3437  -11.7581 H   0  0  0  0  0  0  0  0  0  0  0  0
   12.2018  -27.2064  -14.2997 H   0  0  0  0  0  0  0  0  0  0  0  0
   12.1485  -25.5594  -13.6674 H   0  0  0  0  0  0  0  0  0  0  0  0
   12.3674  -25.0788  -10.7485 H   0  0  0  0  0  0  0  0  0  0  0  0
   11.6091  -26.3772   -9.8206 H   0  0  0  0  0  0  0  0  0  0  0  0
    6.2140  -29.8115   -7.5197 H   0  0  0  0  0  0  0  0  0  0  0  0
    5.3375  -29.7282   -9.0677 H   0  0  0  0  0  0  0  0  0  0  0  0
    6.7972  -30.7086   -8.9434 H   0  0  0  0  0  0  0  0  0  0  0  0
    4.5794  -24.1346   -9.9453 H   0  0  0  0  0  0  0  0  0  0  0  0
    4.6743  -25.8292  -10.4171 H   0  0  0  0  0  0  0  0  0  0  0  0
    4.8526  -25.3806   -8.7170 H   0  0  0  0  0  0  0  0  0  0  0  0
    6.4307  -23.5363  -11.5888 H   0  0  0  0  0  0  0  0  0  0  0  0
    7.9912  -24.3537  -11.5779 H   0  0  0  0  0  0  0  0  0  0  0  0
    6.5388  -25.2272  -12.0908 H   0  0  0  0  0  0  0  0  0  0  0  0
    6.5575  -22.8378   -9.2477 H   0  0  0  0  0  0  0  0  0  0  0  0
    6.8665  -23.9877   -7.9469 H   0  0  0  0  0  0  0  0  0  0  0  0
    8.1531  -23.5740   -9.0986 H   0  0  0  0  0  0  0  0  0  0  0  0
  1  2  2  0  0  0  0
  1  4  1  0  0  0  0
  2  6  1  0  0  0  0
  3  4  2  0  0  0  0
  3  5  1  0  0  0  0
  4 13  1  0  0  0  0
  5  6  2  0  0  0  0
  5 17  1  0  0  0  0
  6 20  1  0  0  0  0
  7 12  1  0  0  0  0
  7 18  1  0  0  0  0
  7 19  2  0  0  0  0
  8  9  1  0  0  0  0
  8 10  1  0  0  0  0
  9 12  1  0  0  0  0
 10 21  1  0  0  0  0
 11 12  1  0  0  0  0
 11 21  1  0  0  0  0
 12 20  1  0  0  0  0
 14 17  1  0  0  0  0
 15 17  1  0  0  0  0
 16 17  1  0  0  0  0
  1 22  1  0  0  0  0
  2 23  1  0  0  0  0
  3 24  1  0  0  0  0
  8 25  1  0  0  0  0
  8 26  1  0  0  0  0
  9 27  1  0  0  0  0
  9 28  1  0  0  0  0
 10 29  1  0  0  0  0
 10 30  1  0  0  0  0
 11 31  1  0  0  0  0
 11 32  1  0  0  0  0
 13 33  1  0  0  0  0
 13 34  1  0  0  0  0
 13 35  1  0  0  0  0
 14 36  1  0  0  0  0
 14 37  1  0  0  0  0
 14 38  1  0  0  0  0
 15 39  1  0  0  0  0
 15 40  1  0  0  0  0
 15 41  1  0  0  0  0
 16 42  1  0  0  0  0
 16 43  1  0  0  0  0
 16 44  1  0  0  0  0
M  CHG  1  18  -1
M  END
> <Hybrid2>
-6.170379161834717

> <Hybrid2>
-6.170379

$$$$
C61588828
  -OEChem-02152218513D

 44 45  0     1  0  0  0  0  0999 V2000
    8.7078  -29.2281  -10.0430 C   0  0  0  0  0  0  0  0  0  0  0  0
    9.4749  -28.3489  -10.8072 C   0  0  0  0  0  0  0  0  0  0  0  0
    7.3337  -27.3846   -9.3012 C   0  0  0  0  0  0  0  0  0  0  0  0
    7.6371  -28.7460   -9.2900 C   0  0  0  0  0  0  0  0  0  0  0  0
    8.1009  -26.5053  -10.0654 C   0  0  0  0  0  0  0  0  0  0  0  0
    9.1715  -26.9875  -10.8184 C   0  0  0  0  0  0  0  0  0  0  0  0
   11.7628  -24.6540  -11.6226 C   0  0  0  0  0  0  0  0  0  0  0  0
   13.5378  -27.2366  -11.8637 C   0  0  0  0  0  0  0  0  0  0  0  0
   12.0458  -27.0834  -12.1533 C   0  0  0  0  0  0  0  0  0  0  0  0
   13.8260  -27.6588  -10.4299 C   0  0  0  0  0  0  0  0  0  0  0  0
   11.5032  -26.3300   -9.7675 C   0  0  0  0  0  0  0  0  0  0  0  0
   11.3302  -26.0710  -11.2608 C   0  0  1  0  0  0  0  0  0  0  0  0
    6.8164  -29.6867   -8.4743 C   0  0  0  0  0  0  0  0  0  0  0  0
    6.5305  -24.7588   -9.1548 C   0  0  0  0  0  0  0  0  0  0  0  0
    7.4123  -24.5548  -11.5036 C   0  0  0  0  0  0  0  0  0  0  0  0
    8.8932  -24.0987   -9.5593 C   0  0  0  0  0  0  0  0  0  0  0  0
    7.7613  -25.0512  -10.0669 C   0  0  0  0  0  0  0  0  0  0  0  0
   12.7667  -24.2195  -10.9928 O   0  5  0  0  0  0  0  0  0  0  0  0
   11.0581  -24.0953  -12.5093 O   0  0  0  0  0  0  0  0  0  0  0  0
    9.9373  -26.1372  -11.5742 O   0  0  0  0  0  0  0  0  0  0  0  0
   13.2388  -26.4249   -9.2374 S   0  0  0  0  0  0  0  0  0  0  0  0
    8.9507  -30.2875  -10.0405 H   0  0  0  0  0  0  0  0  0  0  0  0
   10.3063  -28.7320  -11.3928 H   0  0  0  0  0  0  0  0  0  0  0  0
    6.4986  -27.0097   -8.7141 H   0  0  0  0  0  0  0  0  0  0  0  0
   13.9913  -27.9471  -12.5680 H   0  0  0  0  0  0  0  0  0  0  0  0
   14.0291  -26.2721  -12.0494 H   0  0  0  0  0  0  0  0  0  0  0  0
   11.9154  -26.8160  -13.2174 H   0  0  0  0  0  0  0  0  0  0  0  0
   11.5758  -28.0756  -12.0333 H   0  0  0  0  0  0  0  0  0  0  0  0
   13.3221  -28.6056  -10.2153 H   0  0  0  0  0  0  0  0  0  0  0  0
   14.8986  -27.8145  -10.2788 H   0  0  0  0  0  0  0  0  0  0  0  0
   11.0044  -25.5511   -9.1660 H   0  0  0  0  0  0  0  0  0  0  0  0
   11.0322  -27.2877   -9.4905 H   0  0  0  0  0  0  0  0  0  0  0  0
    7.2348  -29.7820   -7.4648 H   0  0  0  0  0  0  0  0  0  0  0  0
    5.7785  -29.3394   -8.3893 H   0  0  0  0  0  0  0  0  0  0  0  0
    6.7809  -30.6841   -8.9318 H   0  0  0  0  0  0  0  0  0  0  0  0
    6.2598  -23.6966   -9.1381 H   0  0  0  0  0  0  0  0  0  0  0  0
    5.6439  -25.3096   -9.4874 H   0  0  0  0  0  0  0  0  0  0  0  0
    6.7407  -25.0658   -8.1233 H   0  0  0  0  0  0  0  0  0  0  0  0
    7.1623  -23.4883  -11.5105 H   0  0  0  0  0  0  0  0  0  0  0  0
    8.2380  -24.6947  -12.2112 H   0  0  0  0  0  0  0  0  0  0  0  0
    6.5437  -25.0990  -11.8929 H   0  0  0  0  0  0  0  0  0  0  0  0
    8.5964  -23.0431   -9.5792 H   0  0  0  0  0  0  0  0  0  0  0  0
    9.1686  -24.3358   -8.5250 H   0  0  0  0  0  0  0  0  0  0  0  0
    9.7907  -24.1924  -10.1819 H   0  0  0  0  0  0  0  0  0  0  0  0
  1  2  2  0  0  0  0
  1  4  1  0  0  0  0
  2  6  1  0  0  0  0
  3  4  2  0  0  0  0
  3  5  1  0  0  0  0
  4 13  1  0  0  0  0
  5  6  2  0  0  0  0
  5 17  1  0  0  0  0
  6 20  1  0  0  0  0
  7 12  1  0  0  0  0
  7 18  1  0  0  0  0
  7 19  2  0  0  0  0
  8  9  1  0  0  0  0
  8 10  1  0  0  0  0
  9 12  1  0  0  0  0
 10 21  1  0  0  0  0
 11 12  1  0  0  0  0
 11 21  1  0  0  0  0
 12 20  1  0  0  0  0
 14 17  1  0  0  0  0
 15 17  1  0  0  0  0
 16 17  1  0  0  0  0
  1 22  1  0  0  0  0
  2 23  1  0  0  0  0
  3 24  1  0  0  0  0
  8 25  1  0  0  0  0
  8 26  1  0  0  0  0
  9 27  1  0  0  0  0
  9 28  1  0  0  0  0
 10 29  1  0  0  0  0
 10 30  1  0  0  0  0
 11 31  1  0  0  0  0
 11 32  1  0  0  0  0
 13 33  1  0  0  0  0
 13 34  1  0  0  0  0
 13 35  1  0  0  0  0
 14 36  1  0  0  0  0
 14 37  1  0  0  0  0
 14 38  1  0  0  0  0
 15 39  1  0  0  0  0
 15 40  1  0  0  0  0
 15 41  1  0  0  0  0
 16 42  1  0  0  0  0
 16 43  1  0  0  0  0
 16 44  1  0  0  0  0
M  CHG  1  18  -1
M  END
> <Hybrid2>
-6.170379161834717

> <Hybrid2>
-4.883776

$$$$
C06476899
  -OEChem-02152218513D

 33 35  0     1  0  0  0  0  0999 V2000
    6.3241  -30.2221   -8.3861 C   0  0  0  0  0  0  0  0  0  0  0  0
    6.9963  -30.0246   -9.5921 C   0  0  0  0  0  0  0  0  0  0  0  0
    6.0161  -29.1316   -7.5726 C   0  0  0  0  0  0  0  0  0  0  0  0
    7.3607  -28.7366   -9.9847 C   0  0  0  0  0  0  0  0  0  0  0  0
    6.3805  -27.8437   -7.9651 C   0  0  0  0  0  0  0  0  0  0  0  0
   11.7984  -26.2702  -13.1346 C   0  0  0  0  0  0  0  0  0  0  0  0
   13.0488  -26.7654  -12.7614 C   0  0  0  0  0  0  0  0  0  0  0  0
   12.1875  -27.2876  -10.5680 C   0  0  0  0  0  0  0  0  0  0  0  0
   10.9360  -26.7892  -10.9477 C   0  0  0  0  0  0  0  0  0  0  0  0
    7.0528  -27.6462   -9.1712 C   0  0  0  0  0  0  0  0  0  0  0  0
   10.7298  -26.2777  -12.2305 C   0  0  0  0  0  0  0  0  0  0  0  0
   13.2426  -27.2738  -11.4791 C   0  0  0  0  0  0  0  0  0  0  0  0
    9.8059  -26.7940   -9.9963 C   0  0  0  0  0  0  0  0  0  0  0  0
    8.4983  -25.7771  -11.8073 C   0  0  0  0  0  0  0  0  0  0  0  0
    7.7233  -25.3295   -8.4079 C   0  0  0  0  0  0  0  0  0  0  0  0
    7.4481  -26.2485   -9.5964 C   0  0  1  0  0  0  0  0  0  0  0  0
    9.4905  -25.7718  -12.6437 N   0  0  0  0  0  0  0  0  0  0  0  0
    8.6032  -26.2689  -10.4942 N   0  0  0  0  0  0  0  0  0  0  0  0
    9.9768  -27.2405   -8.8654 O   0  0  0  0  0  0  0  0  0  0  0  0
    6.9855  -25.0764  -12.5500 S   0  5  0  0  0  0  0  0  0  0  0  0
   14.9362  -27.9444  -10.9751 Br  0  0  0  0  0  0  0  0  0  0  0  0
    6.0392  -31.2248   -8.0812 H   0  0  0  0  0  0  0  0  0  0  0  0
    7.2352  -30.8734  -10.2262 H   0  0  0  0  0  0  0  0  0  0  0  0
    5.4917  -29.2849   -6.6340 H   0  0  0  0  0  0  0  0  0  0  0  0
    7.8845  -28.5923  -10.9260 H   0  0  0  0  0  0  0  0  0  0  0  0
    6.1365  -27.0001   -7.3249 H   0  0  0  0  0  0  0  0  0  0  0  0
   11.6622  -25.8767  -14.1392 H   0  0  0  0  0  0  0  0  0  0  0  0
   13.8608  -26.7472  -13.4838 H   0  0  0  0  0  0  0  0  0  0  0  0
   12.3419  -27.6848   -9.5677 H   0  0  0  0  0  0  0  0  0  0  0  0
    8.5343  -25.7224   -7.7850 H   0  0  0  0  0  0  0  0  0  0  0  0
    8.0141  -24.3312   -8.7538 H   0  0  0  0  0  0  0  0  0  0  0  0
    6.8392  -25.2050   -7.7726 H   0  0  0  0  0  0  0  0  0  0  0  0
    6.6315  -25.8057  -10.1798 H   0  0  0  0  0  0  0  0  0  0  0  0
  1  2  1  0  0  0  0
  1  3  2  0  0  0  0
  2  4  2  0  0  0  0
  3  5  1  0  0  0  0
  4 10  1  0  0  0  0
  5 10  2  0  0  0  0
  6  7  2  0  0  0  0
  6 11  1  0  0  0  0
  7 12  1  0  0  0  0
  8  9  1  0  0  0  0
  8 12  2  0  0  0  0
  9 11  2  0  0  0  0
  9 13  1  0  0  0  0
 10 16  1  0  0  0  0
 11 17  1  0  0  0  0
 12 21  1  0  0  0  0
 13 18  1  0  0  0  0
 13 19  2  0  0  0  0
 14 17  2  0  0  0  0
 14 18  1  0  0  0  0
 14 20  1  0  0  0  0
 15 16  1  0  0  0  0
 16 18  1  0  0  0  0
  1 22  1  0  0  0  0
  2 23  1  0  0  0  0
  3 24  1  0  0  0  0
  4 25  1  0  0  0  0
  5 26  1  0  0  0  0
  6 27  1  0  0  0  0
  7 28  1  0  0  0  0
  8 29  1  0  0  0  0
 15 30  1  0  0  0  0
 15 31  1  0  0  0  0
 15 32  1  0  0  0  0
 16 33  1  0  0  0  0
M  CHG  1  20  -1
M  END
> <Hybrid2>
-6.913021564483643

> <Hybrid2>
-6.913022

$$$$
C06476899
  -OEChem-02152218513D

 33 35  0     1  0  0  0  0  0999 V2000
    6.5391  -30.5401   -8.4390 C   0  0  0  0  0  0  0  0  0  0  0  0
    7.2872  -30.3023   -9.5921 C   0  0  0  0  0  0  0  0  0  0  0  0
    6.0889  -29.4694   -7.6666 C   0  0  0  0  0  0  0  0  0  0  0  0
    7.5850  -28.9938   -9.9726 C   0  0  0  0  0  0  0  0  0  0  0  0
    6.3867  -28.1610   -8.0472 C   0  0  0  0  0  0  0  0  0  0  0  0
   12.0610  -26.2273  -12.8029 C   0  0  0  0  0  0  0  0  0  0  0  0
   13.3115  -26.6249  -12.3275 C   0  0  0  0  0  0  0  0  0  0  0  0
   12.3225  -27.1930  -10.2004 C   0  0  0  0  0  0  0  0  0  0  0  0
   11.0710  -26.7924  -10.6824 C   0  0  0  0  0  0  0  0  0  0  0  0
    7.1348  -27.9231   -9.2002 C   0  0  0  0  0  0  0  0  0  0  0  0
   10.9285  -26.3077  -11.9841 C   0  0  0  0  0  0  0  0  0  0  0  0
   13.4415  -27.1075  -11.0273 C   0  0  0  0  0  0  0  0  0  0  0  0
    9.8735  -26.8742   -9.8213 C   0  0  0  0  0  0  0  0  0  0  0  0
    8.6399  -25.9718  -11.7416 C   0  0  0  0  0  0  0  0  0  0  0  0
    7.5708  -25.5571   -8.4187 C   0  0  0  0  0  0  0  0  0  0  0  0
    7.4579  -26.5031   -9.6124 C   0  0  1  0  0  0  0  0  0  0  0  0
    9.6913  -25.8989  -12.4988 N   0  0  0  0  0  0  0  0  0  0  0  0
    8.6779  -26.4442  -10.4178 N   0  0  0  0  0  0  0  0  0  0  0  0
    9.9881  -27.2979   -8.6746 O   0  0  0  0  0  0  0  0  0  0  0  0
    7.1421  -25.3917  -12.6085 S   0  5  0  0  0  0  0  0  0  0  0  0
   15.1355  -27.6459  -10.3848 Br  0  0  0  0  0  0  0  0  0  0  0  0
    6.3062  -31.5590   -8.1436 H   0  0  0  0  0  0  0  0  0  0  0  0
    7.6369  -31.1358  -10.1942 H   0  0  0  0  0  0  0  0  0  0  0  0
    5.5055  -29.6542   -6.7694 H   0  0  0  0  0  0  0  0  0  0  0  0
    8.1686  -28.8181  -10.8725 H   0  0  0  0  0  0  0  0  0  0  0  0
    6.0319  -27.3330   -7.4391 H   0  0  0  0  0  0  0  0  0  0  0  0
   11.9750  -25.8529  -13.8203 H   0  0  0  0  0  0  0  0  0  0  0  0
   14.1740  -26.5517  -12.9851 H   0  0  0  0  0  0  0  0  0  0  0  0
   12.4271  -27.5699   -9.1859 H   0  0  0  0  0  0  0  0  0  0  0  0
    8.3574  -25.8834   -7.7296 H   0  0  0  0  0  0  0  0  0  0  0  0
    7.8132  -24.5425   -8.7545 H   0  0  0  0  0  0  0  0  0  0  0  0
    6.6329  -25.4940   -7.8554 H   0  0  0  0  0  0  0  0  0  0  0  0
    6.6588  -26.1271  -10.2632 H   0  0  0  0  0  0  0  0  0  0  0  0
  1  2  1  0  0  0  0
  1  3  2  0  0  0  0
  2  4  2  0  0  0  0
  3  5  1  0  0  0  0
  4 10  1  0  0  0  0
  5 10  2  0  0  0  0
  6  7  2  0  0  0  0
  6 11  1  0  0  0  0
  7 12  1  0  0  0  0
  8  9  1  0  0  0  0
  8 12  2  0  0  0  0
  9 11  2  0  0  0  0
  9 13  1  0  0  0  0
 10 16  1  0  0  0  0
 11 17  1  0  0  0  0
 12 21  1  0  0  0  0
 13 18  1  0  0  0  0
 13 19  2  0  0  0  0
 14 17  2  0  0  0  0
 14 18  1  0  0  0  0
 14 20  1  0  0  0  0
 15 16  1  0  0  0  0
 16 18  1  0  0  0  0
  1 22  1  0  0  0  0
  2 23  1  0  0  0  0
  3 24  1  0  0  0  0
  4 25  1  0  0  0  0
  5 26  1  0  0  0  0
  6 27  1  0  0  0  0
  7 28  1  0  0  0  0
  8 29  1  0  0  0  0
 15 30  1  0  0  0  0
 15 31  1  0  0  0  0
 15 32  1  0  0  0  0
 16 33  1  0  0  0  0
M  CHG  1  20  -1
M  END
> <Hybrid2>
-6.913021564483643

> <Hybrid2>
-6.797498

$$$$
C62762324
  -OEChem-02152218513D

 34 35  0     1  0  0  0  0  0999 V2000
    8.8591  -26.6695  -11.3491 C   0  0  0  0  0  0  0  0  0  0  0  0
   10.4195  -27.1082   -9.5576 C   0  0  0  0  0  0  0  0  0  0  0  0
    9.9043  -26.7185  -12.2715 C   0  0  0  0  0  0  0  0  0  0  0  0
   11.4647  -27.1572  -10.4799 C   0  0  0  0  0  0  0  0  0  0  0  0
    9.1167  -26.8643   -9.9921 C   0  0  0  0  0  0  0  0  0  0  0  0
   11.2071  -26.9624  -11.8369 C   0  0  0  0  0  0  0  0  0  0  0  0
    5.5488  -25.7708   -9.1841 C   0  0  0  0  0  0  0  0  0  0  0  0
    5.3487  -30.2921   -9.1259 C   0  0  0  0  0  0  0  0  0  0  0  0
    4.2071  -29.3083   -8.8910 C   0  0  0  0  0  0  0  0  0  0  0  0
    6.5014  -30.0835   -8.1539 C   0  0  0  0  0  0  0  0  0  0  0  0
    4.4850  -27.8824   -9.3519 C   0  0  0  0  0  0  0  0  0  0  0  0
    7.5316  -29.0434   -8.5755 C   0  0  0  0  0  0  0  0  0  0  0  0
    5.7196  -27.2180   -8.7355 C   0  0  1  0  0  0  0  0  0  0  0  0
    7.0412  -27.7693   -9.2720 C   0  0  1  0  0  0  0  0  0  0  0  0
    5.6133  -25.5816  -10.4304 O   0  5  0  0  0  0  0  0  0  0  0  0
    5.3640  -24.9442   -8.2472 O   0  0  0  0  0  0  0  0  0  0  0  0
    8.0952  -26.8152   -9.0895 O   0  0  0  0  0  0  0  0  0  0  0  0
   12.7638  -27.0353  -13.2107 I   0  0  0  0  0  0  0  0  0  0  0  0
    7.8462  -26.4794  -11.6938 H   0  0  0  0  0  0  0  0  0  0  0  0
   10.6259  -27.2594   -8.5014 H   0  0  0  0  0  0  0  0  0  0  0  0
    9.6819  -26.5629  -13.3240 H   0  0  0  0  0  0  0  0  0  0  0  0
   12.4727  -27.3478  -10.1203 H   0  0  0  0  0  0  0  0  0  0  0  0
    4.9853  -31.3121   -9.0540 H   0  0  0  0  0  0  0  0  0  0  0  0
    5.7269  -30.1471  -10.1341 H   0  0  0  0  0  0  0  0  0  0  0  0
    3.2658  -29.6943   -9.3240 H   0  0  0  0  0  0  0  0  0  0  0  0
    4.0291  -29.2750   -7.8001 H   0  0  0  0  0  0  0  0  0  0  0  0
    6.0755  -29.7747   -7.1899 H   0  0  0  0  0  0  0  0  0  0  0  0
    7.0007  -31.0438   -7.9688 H   0  0  0  0  0  0  0  0  0  0  0  0
    4.5841  -27.8873  -10.4438 H   0  0  0  0  0  0  0  0  0  0  0  0
    3.6116  -27.2567   -9.1383 H   0  0  0  0  0  0  0  0  0  0  0  0
    8.1856  -28.7726   -7.7026 H   0  0  0  0  0  0  0  0  0  0  0  0
    8.2554  -29.5573   -9.2616 H   0  0  0  0  0  0  0  0  0  0  0  0
    5.6469  -27.2524   -7.6743 H   0  0  0  0  0  0  0  0  0  0  0  0
    6.9984  -27.9626  -10.3627 H   0  0  0  0  0  0  0  0  0  0  0  0
  1  3  1  0  0  0  0
  1  5  2  0  0  0  0
  2  4  2  0  0  0  0
  2  5  1  0  0  0  0
  3  6  2  0  0  0  0
  4  6  1  0  0  0  0
  5 17  1  0  0  0  0
  6 18  1  0  0  0  0
  7 13  1  0  0  0  0
  7 15  1  0  0  0  0
  7 16  2  0  0  0  0
  8  9  1  0  0  0  0
  8 10  1  0  0  0  0
  9 11  1  0  0  0  0
 10 12  1  0  0  0  0
 11 13  1  0  0  0  0
 12 14  1  0  0  0  0
 13 14  1  0  0  0  0
 14 17  1  0  0  0  0
  1 19  1  0  0  0  0
  2 20  1  0  0  0  0
  3 21  1  0  0  0  0
  4 22  1  0  0  0  0
  8 23  1  0  0  0  0
  8 24  1  0  0  0  0
  9 25  1  0  0  0  0
  9 26  1  0  0  0  0
 10 27  1  0  0  0  0
 10 28  1  0  0  0  0
 11 29  1  0  0  0  0
 11 30  1  0  0  0  0
 12 31  1  0  0  0  0
 12 32  1  0  0  0  0
 13 33  1  0  0  0  0
 14 34  1  0  0  0  0
M  CHG  1  15  -1
M  END
> <Hybrid2>
-4.872311592102051

> <Hybrid2>
-4.872312

$$$$
C62762324
  -OEChem-02152218513D

 34 35  0     1  0  0  0  0  0999 V2000
   10.7122  -25.0686  -11.7156 C   0  0  0  0  0  0  0  0  0  0  0  0
   11.6303  -26.7570  -10.2517 C   0  0  0  0  0  0  0  0  0  0  0  0
   11.7874  -25.2397  -12.5875 C   0  0  0  0  0  0  0  0  0  0  0  0
   12.7056  -26.9282  -11.1236 C   0  0  0  0  0  0  0  0  0  0  0  0
   10.6337  -25.8272  -10.5477 C   0  0  0  0  0  0  0  0  0  0  0  0
   12.7841  -26.1696  -12.2915 C   0  0  0  0  0  0  0  0  0  0  0  0
    6.7384  -24.1982   -9.4246 C   0  0  0  0  0  0  0  0  0  0  0  0
    7.7012  -28.3664   -8.4727 C   0  0  0  0  0  0  0  0  0  0  0  0
    6.2479  -27.9110   -8.5907 C   0  0  0  0  0  0  0  0  0  0  0  0
    8.4664  -28.4641   -9.7893 C   0  0  0  0  0  0  0  0  0  0  0  0
    6.0140  -26.4927   -9.1322 C   0  0  0  0  0  0  0  0  0  0  0  0
    8.2385  -27.3393  -10.7975 C   0  0  0  0  0  0  0  0  0  0  0  0
    7.2533  -25.6023   -9.1370 C   0  0  1  0  0  0  0  0  0  0  0  0
    8.2827  -25.9153  -10.2326 C   0  0  1  0  0  0  0  0  0  0  0  0
    6.1768  -24.0489  -10.5451 O   0  5  0  0  0  0  0  0  0  0  0  0
    6.9405  -23.3605   -8.5012 O   0  0  0  0  0  0  0  0  0  0  0  0
    9.5830  -25.6593   -9.6940 O   0  0  0  0  0  0  0  0  0  0  0  0
   14.3857  -26.4244  -13.5900 I   0  0  0  0  0  0  0  0  0  0  0  0
    9.9386  -24.3428  -11.9518 H   0  0  0  0  0  0  0  0  0  0  0  0
   11.5746  -27.3497   -9.3425 H   0  0  0  0  0  0  0  0  0  0  0  0
   11.8299  -24.6377  -13.4915 H   0  0  0  0  0  0  0  0  0  0  0  0
   13.4720  -27.6576  -10.8738 H   0  0  0  0  0  0  0  0  0  0  0  0
    8.2438  -27.7045   -7.7835 H   0  0  0  0  0  0  0  0  0  0  0  0
    7.7125  -29.3606   -8.0044 H   0  0  0  0  0  0  0  0  0  0  0  0
    5.6529  -28.6556   -9.1646 H   0  0  0  0  0  0  0  0  0  0  0  0
    5.8139  -27.9447   -7.5679 H   0  0  0  0  0  0  0  0  0  0  0  0
    9.5420  -28.4953   -9.5488 H   0  0  0  0  0  0  0  0  0  0  0  0
    8.2465  -29.4340  -10.2655 H   0  0  0  0  0  0  0  0  0  0  0  0
    5.6191  -26.5794  -10.1460 H   0  0  0  0  0  0  0  0  0  0  0  0
    5.2351  -26.0106   -8.5409 H   0  0  0  0  0  0  0  0  0  0  0  0
    8.9398  -27.4372  -11.6527 H   0  0  0  0  0  0  0  0  0  0  0  0
    7.2404  -27.5041  -11.2544 H   0  0  0  0  0  0  0  0  0  0  0  0
    7.7046  -25.5913   -8.1604 H   0  0  0  0  0  0  0  0  0  0  0  0
    8.1729  -25.1895  -11.0829 H   0  0  0  0  0  0  0  0  0  0  0  0
  1  3  1  0  0  0  0
  1  5  2  0  0  0  0
  2  4  2  0  0  0  0
  2  5  1  0  0  0  0
  3  6  2  0  0  0  0
  4  6  1  0  0  0  0
  5 17  1  0  0  0  0
  6 18  1  0  0  0  0
  7 13  1  0  0  0  0
  7 15  1  0  0  0  0
  7 16  2  0  0  0  0
  8  9  1  0  0  0  0
  8 10  1  0  0  0  0
  9 11  1  0  0  0  0
 10 12  1  0  0  0  0
 11 13  1  0  0  0  0
 12 14  1  0  0  0  0
 13 14  1  0  0  0  0
 14 17  1  0  0  0  0
  1 19  1  0  0  0  0
  2 20  1  0  0  0  0
  3 21  1  0  0  0  0
  4 22  1  0  0  0  0
  8 23  1  0  0  0  0
  8 24  1  0  0  0  0
  9 25  1  0  0  0  0
  9 26  1  0  0  0  0
 10 27  1  0  0  0  0
 10 28  1  0  0  0  0
 11 29  1  0  0  0  0
 11 30  1  0  0  0  0
 12 31  1  0  0  0  0
 12 32  1  0  0  0  0
 13 33  1  0  0  0  0
 14 34  1  0  0  0  0
M  CHG  1  15  -1
M  END
> <Hybrid2>
-4.872311592102051

> <Hybrid2>
-3.344786

$$$$
C62764485
  -OEChem-02152218513D

 36 38  0     1  0  0  0  0  0999 V2000
   12.8534  -26.7134  -13.0062 C   0  0  0  0  0  0  0  0  0  0  0  0
   13.5019  -27.0150  -11.8138 C   0  0  0  0  0  0  0  0  0  0  0  0
   11.4931  -26.3913  -13.0132 C   0  0  0  0  0  0  0  0  0  0  0  0
   12.8113  -27.0032  -10.5993 C   0  0  0  0  0  0  0  0  0  0  0  0
   10.7716  -26.3720  -11.8000 C   0  0  0  0  0  0  0  0  0  0  0  0
   11.4452  -26.6789  -10.6138 C   0  0  0  0  0  0  0  0  0  0  0  0
    9.0924  -26.1517  -10.3861 C   0  0  0  0  0  0  0  0  0  0  0  0
    5.7133  -26.6641   -7.1804 C   0  0  0  0  0  0  0  0  0  0  0  0
    6.5206  -30.6364   -8.8254 C   0  0  0  0  0  0  0  0  0  0  0  0
    5.8647  -29.8541   -7.6911 C   0  0  0  0  0  0  0  0  0  0  0  0
    7.6431  -29.9034   -9.5482 C   0  0  0  0  0  0  0  0  0  0  0  0
    4.9558  -28.7326   -8.1922 C   0  0  0  0  0  0  0  0  0  0  0  0
    7.2596  -28.5538  -10.1589 C   0  0  0  0  0  0  0  0  0  0  0  0
    5.6449  -27.4040   -8.5131 C   0  0  2  0  0  0  0  0  0  0  0  0
    7.0607  -27.4638   -9.0974 C   0  0  2  0  0  0  0  0  0  0  0  0
    9.4249  -26.0725  -11.6534 N   0  0  0  0  0  0  0  0  0  0  0  0
    6.4581  -27.1916   -6.3086 O   0  5  0  0  0  0  0  0  0  0  0  0
    5.0130  -25.6147   -7.1207 O   0  0  0  0  0  0  0  0  0  0  0  0
   10.3380  -26.5820   -9.2956 S   0  0  0  0  0  0  0  0  0  0  0  0
    7.4443  -25.8274   -9.8550 S   0  0  0  0  0  0  0  0  0  0  0  0
   13.4076  -26.7270  -13.9407 H   0  0  0  0  0  0  0  0  0  0  0  0
   14.5600  -27.2635  -11.8253 H   0  0  0  0  0  0  0  0  0  0  0  0
   10.9978  -26.1553  -13.9509 H   0  0  0  0  0  0  0  0  0  0  0  0
   13.3248  -27.2398   -9.6724 H   0  0  0  0  0  0  0  0  0  0  0  0
    6.9372  -31.5623   -8.4090 H   0  0  0  0  0  0  0  0  0  0  0  0
    5.7593  -30.9470   -9.5518 H   0  0  0  0  0  0  0  0  0  0  0  0
    5.2398  -30.5608   -7.1298 H   0  0  0  0  0  0  0  0  0  0  0  0
    6.6156  -29.4799   -6.9867 H   0  0  0  0  0  0  0  0  0  0  0  0
    8.4919  -29.7710   -8.8656 H   0  0  0  0  0  0  0  0  0  0  0  0
    8.0029  -30.5549  -10.3549 H   0  0  0  0  0  0  0  0  0  0  0  0
    4.4211  -29.0768   -9.0872 H   0  0  0  0  0  0  0  0  0  0  0  0
    4.1747  -28.5652   -7.4374 H   0  0  0  0  0  0  0  0  0  0  0  0
    8.0870  -28.2822  -10.8282 H   0  0  0  0  0  0  0  0  0  0  0  0
    6.3701  -28.6584  -10.7925 H   0  0  0  0  0  0  0  0  0  0  0  0
    4.9670  -26.8336   -9.1628 H   0  0  0  0  0  0  0  0  0  0  0  0
    7.8057  -27.5894   -8.3006 H   0  0  0  0  0  0  0  0  0  0  0  0
  1  2  1  0  0  0  0
  1  3  2  0  0  0  0
  2  4  2  0  0  0  0
  3  5  1  0  0  0  0
  4  6  1  0  0  0  0
  5  6  2  0  0  0  0
  5 16  1  0  0  0  0
  6 19  1  0  0  0  0
  7 16  2  0  0  0  0
  7 19  1  0  0  0  0
  7 20  1  0  0  0  0
  8 14  1  0  0  0  0
  8 17  1  0  0  0  0
  8 18  2  0  0  0  0
  9 10  1  0  0  0  0
  9 11  1  0  0  0  0
 10 12  1  0  0  0  0
 11 13  1  0  0  0  0
 12 14  1  0  0  0  0
 13 15  1  0  0  0  0
 14 15  1  0  0  0  0
 15 20  1  0  0  0  0
  1 21  1  0  0  0  0
  2 22  1  0  0  0  0
  3 23  1  0  0  0  0
  4 24  1  0  0  0  0
  9 25  1  0  0  0  0
  9 26  1  0  0  0  0
 10 27  1  0  0  0  0
 10 28  1  0  0  0  0
 11 29  1  0  0  0  0
 11 30  1  0  0  0  0
 12 31  1  0  0  0  0
 12 32  1  0  0  0  0
 13 33  1  0  0  0  0
 13 34  1  0  0  0  0
 14 35  1  0  0  0  0
 15 36  1  0  0  0  0
M  CHG  1  17  -1
M  END
> <Hybrid2>
-5.037941932678223

> <Hybrid2>
-5.037942

$$$$
C62764485
  -OEChem-02152218513D

 36 38  0     1  0  0  0  0  0999 V2000
    6.3839  -30.0265   -8.7033 C   0  0  0  0  0  0  0  0  0  0  0  0
    5.5963  -29.1423   -7.9743 C   0  0  0  0  0  0  0  0  0  0  0  0
    7.4620  -29.5590   -9.4605 C   0  0  0  0  0  0  0  0  0  0  0  0
    5.8634  -27.7710   -7.9818 C   0  0  0  0  0  0  0  0  0  0  0  0
    7.7538  -28.1780   -9.4855 C   0  0  0  0  0  0  0  0  0  0  0  0
    6.9478  -27.3083   -8.7446 C   0  0  0  0  0  0  0  0  0  0  0  0
    8.7572  -26.2765   -9.9801 C   0  0  0  0  0  0  0  0  0  0  0  0
   11.7493  -26.2638  -13.2718 C   0  0  0  0  0  0  0  0  0  0  0  0
   13.9747  -28.0675   -9.9656 C   0  0  0  0  0  0  0  0  0  0  0  0
   13.8867  -27.9010  -11.4800 C   0  0  0  0  0  0  0  0  0  0  0  0
   12.6639  -27.8616   -9.2179 C   0  0  0  0  0  0  0  0  0  0  0  0
   13.7461  -26.4412  -11.9090 C   0  0  0  0  0  0  0  0  0  0  0  0
   11.9898  -26.5053   -9.4355 C   0  0  0  0  0  0  0  0  0  0  0  0
   12.3232  -25.8772  -11.9118 C   0  0  2  0  0  0  0  0  0  0  0  0
   11.3607  -26.3786  -10.8293 C   0  0  2  0  0  0  0  0  0  0  0  0
    8.7855  -27.5721  -10.1878 N   0  0  0  0  0  0  0  0  0  0  0  0
   11.5875  -27.5019  -13.4564 O   0  5  0  0  0  0  0  0  0  0  0  0
   11.5090  -25.2913  -14.0411 O   0  0  0  0  0  0  0  0  0  0  0  0
    7.5203  -25.6952   -8.9514 S   0  0  0  0  0  0  0  0  0  0  0  0
    9.9402  -25.2078  -10.7298 S   0  0  0  0  0  0  0  0  0  0  0  0
    6.1611  -31.0898   -8.6843 H   0  0  0  0  0  0  0  0  0  0  0  0
    4.7617  -29.5218   -7.3906 H   0  0  0  0  0  0  0  0  0  0  0  0
    8.0714  -30.2597  -10.0243 H   0  0  0  0  0  0  0  0  0  0  0  0
    5.2438  -27.0869   -7.4098 H   0  0  0  0  0  0  0  0  0  0  0  0
   14.3280  -29.0840   -9.7511 H   0  0  0  0  0  0  0  0  0  0  0  0
   14.7371  -27.3904   -9.5607 H   0  0  0  0  0  0  0  0  0  0  0  0
   14.8259  -28.2812  -11.9023 H   0  0  0  0  0  0  0  0  0  0  0  0
   13.0871  -28.5226  -11.8975 H   0  0  0  0  0  0  0  0  0  0  0  0
   11.9648  -28.6663   -9.4777 H   0  0  0  0  0  0  0  0  0  0  0  0
   12.8692  -27.9744   -8.1456 H   0  0  0  0  0  0  0  0  0  0  0  0
   14.3717  -25.8145  -11.2599 H   0  0  0  0  0  0  0  0  0  0  0  0
   14.1810  -26.3386  -12.9131 H   0  0  0  0  0  0  0  0  0  0  0  0
   11.2130  -26.4297   -8.6627 H   0  0  0  0  0  0  0  0  0  0  0  0
   12.6981  -25.6898   -9.2437 H   0  0  0  0  0  0  0  0  0  0  0  0
   12.4064  -24.7819  -11.8979 H   0  0  0  0  0  0  0  0  0  0  0  0
   10.9165  -27.3402  -11.1185 H   0  0  0  0  0  0  0  0  0  0  0  0
  1  2  1  0  0  0  0
  1  3  2  0  0  0  0
  2  4  2  0  0  0  0
  3  5  1  0  0  0  0
  4  6  1  0  0  0  0
  5  6  2  0  0  0  0
  5 16  1  0  0  0  0
  6 19  1  0  0  0  0
  7 16  2  0  0  0  0
  7 19  1  0  0  0  0
  7 20  1  0  0  0  0
  8 14  1  0  0  0  0
  8 17  1  0  0  0  0
  8 18  2  0  0  0  0
  9 10  1  0  0  0  0
  9 11  1  0  0  0  0
 10 12  1  0  0  0  0
 11 13  1  0  0  0  0
 12 14  1  0  0  0  0
 13 15  1  0  0  0  0
 14 15  1  0  0  0  0
 15 20  1  0  0  0  0
  1 21  1  0  0  0  0
  2 22  1  0  0  0  0
  3 23  1  0  0  0  0
  4 24  1  0  0  0  0
  9 25  1  0  0  0  0
  9 26  1  0  0  0  0
 10 27  1  0  0  0  0
 10 28  1  0  0  0  0
 11 29  1  0  0  0  0
 11 30  1  0  0  0  0
 12 31  1  0  0  0  0
 12 32  1  0  0  0  0
 13 33  1  0  0  0  0
 13 34  1  0  0  0  0
 14 35  1  0  0  0  0
 15 36  1  0  0  0  0
M  CHG  1  17  -1
M  END
> <Hybrid2>
-5.037941932678223

> <Hybrid2>
-4.869078

$$$$
C04667771
  -OEChem-02152218513D

 39 41  0     1  0  0  0  0  0999 V2000
    6.9079  -24.9480  -10.2314 C   0  0  0  0  0  0  0  0  0  0  0  0
    8.1368  -29.9667  -10.1466 C   0  0  0  0  0  0  0  0  0  0  0  0
    7.1263  -30.1493   -9.2026 C   0  0  0  0  0  0  0  0  0  0  0  0
    8.7265  -28.7124  -10.3033 C   0  0  0  0  0  0  0  0  0  0  0  0
    6.7054  -29.0776   -8.4153 C   0  0  0  0  0  0  0  0  0  0  0  0
    8.3056  -27.6406   -9.5161 C   0  0  0  0  0  0  0  0  0  0  0  0
    7.2950  -27.8231   -8.5721 C   0  0  0  0  0  0  0  0  0  0  0  0
    8.1806  -25.4203  -10.6952 C   0  0  0  0  0  0  0  0  0  0  0  0
   10.4358  -26.4309  -10.1149 C   0  0  0  0  0  0  0  0  0  0  0  0
   11.4219  -26.8100   -9.2627 C   0  0  0  0  0  0  0  0  0  0  0  0
    8.6734  -25.1003  -11.9176 C   0  0  0  0  0  0  0  0  0  0  0  0
   10.7393  -26.0889  -11.5400 C   0  0  0  0  0  0  0  0  0  0  0  0
   12.8391  -27.0068   -9.7943 C   0  0  0  0  0  0  0  0  0  0  0  0
   12.1180  -26.3872  -12.0945 C   0  0  0  0  0  0  0  0  0  0  0  0
   12.8521  -27.4145  -11.2628 C   0  0  0  0  0  0  0  0  0  0  0  0
    8.9762  -26.2822   -9.7209 C   0  0  2  0  0  0  0  0  0  0  0  0
    5.9384  -24.8862  -14.9641 C   0  0  0  0  0  0  0  0  0  0  0  0
    6.8598  -25.4445  -13.8963 C   0  0  0  0  0  0  0  0  0  0  0  0
    5.8787  -24.5662   -9.8563 N   0  0  0  0  0  0  0  0  0  0  0  0
    9.9201  -25.5015  -12.3537 N   0  0  0  0  0  0  0  0  0  0  0  0
   11.3770  -27.0786   -8.0282 O   0  5  0  0  0  0  0  0  0  0  0  0
    7.7272  -24.1124  -13.0496 S   0  0  0  0  0  0  0  0  0  0  0  0
    6.7482  -26.5208   -7.5800 Cl  0  0  0  0  0  0  0  0  0  0  0  0
    8.4649  -30.8017  -10.7590 H   0  0  0  0  0  0  0  0  0  0  0  0
    6.6683  -31.1264   -9.0799 H   0  0  0  0  0  0  0  0  0  0  0  0
    9.5133  -28.5811  -11.0416 H   0  0  0  0  0  0  0  0  0  0  0  0
    5.9176  -29.2367   -7.6834 H   0  0  0  0  0  0  0  0  0  0  0  0
   13.4277  -26.0930   -9.7074 H   0  0  0  0  0  0  0  0  0  0  0  0
   13.3325  -27.7837   -9.2092 H   0  0  0  0  0  0  0  0  0  0  0  0
   12.0043  -26.7255  -13.1453 H   0  0  0  0  0  0  0  0  0  0  0  0
   12.7085  -25.4490  -12.1363 H   0  0  0  0  0  0  0  0  0  0  0  0
   13.8896  -27.5033  -11.6094 H   0  0  0  0  0  0  0  0  0  0  0  0
   12.3866  -28.3991  -11.3807 H   0  0  0  0  0  0  0  0  0  0  0  0
    8.9424  -25.7665   -8.7304 H   0  0  0  0  0  0  0  0  0  0  0  0
    5.1904  -24.2101  -14.5363 H   0  0  0  0  0  0  0  0  0  0  0  0
    6.4972  -24.3446  -15.7349 H   0  0  0  0  0  0  0  0  0  0  0  0
    5.4015  -25.7033  -15.4573 H   0  0  0  0  0  0  0  0  0  0  0  0
    7.5977  -26.1161  -14.3455 H   0  0  0  0  0  0  0  0  0  0  0  0
    6.2851  -26.0145  -13.1601 H   0  0  0  0  0  0  0  0  0  0  0  0
  1  8  1  0  0  0  0
  1 19  3  0  0  0  0
  2  3  1  0  0  0  0
  2  4  2  0  0  0  0
  3  5  2  0  0  0  0
  4  6  1  0  0  0  0
  5  7  1  0  0  0  0
  6  7  2  0  0  0  0
  6 16  1  0  0  0  0
  7 23  1  0  0  0  0
  8 11  2  0  0  0  0
  8 16  1  0  0  0  0
  9 10  2  0  0  0  0
  9 12  1  0  0  0  0
  9 16  1  0  0  0  0
 10 13  1  0  0  0  0
 10 21  1  0  0  0  0
 11 20  1  0  0  0  0
 11 22  1  0  0  0  0
 12 14  1  0  0  0  0
 12 20  2  0  0  0  0
 13 15  1  0  0  0  0
 14 15  1  0  0  0  0
 17 18  1  0  0  0  0
 18 22  1  0  0  0  0
  2 24  1  0  0  0  0
  3 25  1  0  0  0  0
  4 26  1  0  0  0  0
  5 27  1  0  0  0  0
 13 28  1  0  0  0  0
 13 29  1  0  0  0  0
 14 30  1  0  0  0  0
 14 31  1  0  0  0  0
 15 32  1  0  0  0  0
 15 33  1  0  0  0  0
 16 34  1  0  0  0  0
 17 35  1  0  0  0  0
 17 36  1  0  0  0  0
 17 37  1  0  0  0  0
 18 38  1  0  0  0  0
 18 39  1  0  0  0  0
M  CHG  1  21  -1
M  END
> <Hybrid2>
-5.47341251373291

> <Hybrid2>
-5.473413

$$$$
C04667771
  -OEChem-02152218513D

 39 41  0     1  0  0  0  0  0999 V2000
    7.3655  -25.0434  -10.4024 C   0  0  0  0  0  0  0  0  0  0  0  0
    8.0836  -30.1852  -10.2790 C   0  0  0  0  0  0  0  0  0  0  0  0
    7.0595  -30.2623   -9.3351 C   0  0  0  0  0  0  0  0  0  0  0  0
    8.7927  -28.9953  -10.4431 C   0  0  0  0  0  0  0  0  0  0  0  0
    6.7444  -29.1494   -8.5554 C   0  0  0  0  0  0  0  0  0  0  0  0
    8.4777  -27.8824   -9.6634 C   0  0  0  0  0  0  0  0  0  0  0  0
    7.4535  -27.9595   -8.7196 C   0  0  0  0  0  0  0  0  0  0  0  0
    8.5757  -25.6656  -10.8572 C   0  0  0  0  0  0  0  0  0  0  0  0
   10.7163  -26.8827  -10.2699 C   0  0  0  0  0  0  0  0  0  0  0  0
   11.6771  -27.3239   -9.4185 C   0  0  0  0  0  0  0  0  0  0  0  0
    9.0907  -25.4251  -12.0884 C   0  0  0  0  0  0  0  0  0  0  0  0
   11.0244  -26.6378  -11.7133 C   0  0  0  0  0  0  0  0  0  0  0  0
   13.1007  -27.5726   -9.9228 C   0  0  0  0  0  0  0  0  0  0  0  0
   12.3181  -27.1938  -12.2604 C   0  0  0  0  0  0  0  0  0  0  0  0
   13.4226  -26.9181  -11.2637 C   0  0  0  0  0  0  0  0  0  0  0  0
    9.2769  -26.5982   -9.8760 C   0  0  2  0  0  0  0  0  0  0  0  0
    8.0566  -26.6188  -14.6991 C   0  0  0  0  0  0  0  0  0  0  0  0
    7.2023  -25.5673  -14.0168 C   0  0  0  0  0  0  0  0  0  0  0  0
    6.3868  -24.5405  -10.0350 N   0  0  0  0  0  0  0  0  0  0  0  0
   10.2629  -25.9962  -12.5413 N   0  0  0  0  0  0  0  0  0  0  0  0
   11.6070  -27.5923   -8.1846 O   0  5  0  0  0  0  0  0  0  0  0  0
    8.2393  -24.3414  -13.2011 S   0  0  0  0  0  0  0  0  0  0  0  0
    7.0355  -26.6036   -7.7367 Cl  0  0  0  0  0  0  0  0  0  0  0  0
    8.3292  -31.0522  -10.8855 H   0  0  0  0  0  0  0  0  0  0  0  0
    6.5084  -31.1893   -9.2068 H   0  0  0  0  0  0  0  0  0  0  0  0
    9.5891  -28.9461  -11.1812 H   0  0  0  0  0  0  0  0  0  0  0  0
    5.9444  -29.2263   -7.8235 H   0  0  0  0  0  0  0  0  0  0  0  0
   13.8460  -27.2078   -9.2004 H   0  0  0  0  0  0  0  0  0  0  0  0
   13.2561  -28.6577  -10.0164 H   0  0  0  0  0  0  0  0  0  0  0  0
   12.1936  -28.2680  -12.4372 H   0  0  0  0  0  0  0  0  0  0  0  0
   12.5521  -26.7176  -13.2188 H   0  0  0  0  0  0  0  0  0  0  0  0
   13.5376  -25.8354  -11.1238 H   0  0  0  0  0  0  0  0  0  0  0  0
   14.3778  -27.2975  -11.6432 H   0  0  0  0  0  0  0  0  0  0  0  0
    9.2941  -26.0731   -8.8891 H   0  0  0  0  0  0  0  0  0  0  0  0
    8.7159  -26.1744  -15.4524 H   0  0  0  0  0  0  0  0  0  0  0  0
    8.6717  -27.1676  -13.9779 H   0  0  0  0  0  0  0  0  0  0  0  0
    7.4158  -27.3462  -15.2086 H   0  0  0  0  0  0  0  0  0  0  0  0
    6.5526  -26.0329  -13.2695 H   0  0  0  0  0  0  0  0  0  0  0  0
    6.5680  -25.0602  -14.7501 H   0  0  0  0  0  0  0  0  0  0  0  0
  1  8  1  0  0  0  0
  1 19  3  0  0  0  0
  2  3  1  0  0  0  0
  2  4  2  0  0  0  0
  3  5  2  0  0  0  0
  4  6  1  0  0  0  0
  5  7  1  0  0  0  0
  6  7  2  0  0  0  0
  6 16  1  0  0  0  0
  7 23  1  0  0  0  0
  8 11  2  0  0  0  0
  8 16  1  0  0  0  0
  9 10  2  0  0  0  0
  9 12  1  0  0  0  0
  9 16  1  0  0  0  0
 10 13  1  0  0  0  0
 10 21  1  0  0  0  0
 11 20  1  0  0  0  0
 11 22  1  0  0  0  0
 12 14  1  0  0  0  0
 12 20  2  0  0  0  0
 13 15  1  0  0  0  0
 14 15  1  0  0  0  0
 17 18  1  0  0  0  0
 18 22  1  0  0  0  0
  2 24  1  0  0  0  0
  3 25  1  0  0  0  0
  4 26  1  0  0  0  0
  5 27  1  0  0  0  0
 13 28  1  0  0  0  0
 13 29  1  0  0  0  0
 14 30  1  0  0  0  0
 14 31  1  0  0  0  0
 15 32  1  0  0  0  0
 15 33  1  0  0  0  0
 16 34  1  0  0  0  0
 17 35  1  0  0  0  0
 17 36  1  0  0  0  0
 17 37  1  0  0  0  0
 18 38  1  0  0  0  0
 18 39  1  0  0  0  0
M  CHG  1  21  -1
M  END
> <Hybrid2>
-5.47341251373291

> <Hybrid2>
-5.380711

$$$$
C00093048
  -OEChem-02152218513D

 40 41  0     0  0  0  0  0  0999 V2000
    8.1255  -25.3811   -9.8857 C   0  0  0  0  0  0  0  0  0  0  0  0
    8.3096  -26.7247  -10.0901 C   0  0  0  0  0  0  0  0  0  0  0  0
    9.7821  -25.7670  -11.2778 C   0  0  0  0  0  0  0  0  0  0  0  0
    7.1229  -24.8322   -9.0316 C   0  0  0  0  0  0  0  0  0  0  0  0
    6.4835  -27.2483   -8.5927 C   0  0  0  0  0  0  0  0  0  0  0  0
   10.3048  -23.1875   -8.4740 C   0  0  0  0  0  0  0  0  0  0  0  0
   13.1543  -26.9107  -14.4559 C   0  0  0  0  0  0  0  0  0  0  0  0
   14.4169  -25.8615  -12.5497 C   0  0  0  0  0  0  0  0  0  0  0  0
    7.7378  -29.0971   -9.7056 C   0  0  0  0  0  0  0  0  0  0  0  0
   10.4819  -22.8704   -9.9498 C   0  0  0  0  0  0  0  0  0  0  0  0
    9.2833  -23.3449  -10.7683 C   0  0  0  0  0  0  0  0  0  0  0  0
   12.1277  -26.9107  -12.1162 C   0  0  0  0  0  0  0  0  0  0  0  0
   13.4201  -26.9515  -12.9496 C   0  0  0  0  0  0  0  0  0  0  0  0
    9.3407  -26.9662  -10.9570 N   0  0  0  0  0  0  0  0  0  0  0  0
    9.0756  -24.7715  -10.6521 N   0  0  0  0  0  0  0  0  0  0  0  0
    6.3579  -25.8451   -8.4346 N   0  0  0  0  0  0  0  0  0  0  0  0
    7.5124  -27.6790   -9.4640 N   0  0  0  0  0  0  0  0  0  0  0  0
    6.9351  -23.6362   -8.8306 O   0  0  0  0  0  0  0  0  0  0  0  0
    5.7254  -28.0152   -7.9924 O   0  0  0  0  0  0  0  0  0  0  0  0
   11.0939  -25.4379  -12.3572 S   0  0  0  0  0  0  0  0  0  0  0  0
   10.1663  -24.2620   -8.3178 H   0  0  0  0  0  0  0  0  0  0  0  0
    9.4252  -22.6703   -8.0778 H   0  0  0  0  0  0  0  0  0  0  0  0
   11.1771  -22.8655   -7.8963 H   0  0  0  0  0  0  0  0  0  0  0  0
   12.6751  -25.9760  -14.7637 H   0  0  0  0  0  0  0  0  0  0  0  0
   14.0939  -26.9976  -15.0125 H   0  0  0  0  0  0  0  0  0  0  0  0
   12.5104  -27.7425  -14.7602 H   0  0  0  0  0  0  0  0  0  0  0  0
   14.0219  -24.8568  -12.7303 H   0  0  0  0  0  0  0  0  0  0  0  0
   15.3428  -25.9598  -13.1269 H   0  0  0  0  0  0  0  0  0  0  0  0
   14.6768  -25.9422  -11.4890 H   0  0  0  0  0  0  0  0  0  0  0  0
    8.4572  -29.4851   -8.9694 H   0  0  0  0  0  0  0  0  0  0  0  0
    6.7864  -29.6409   -9.6104 H   0  0  0  0  0  0  0  0  0  0  0  0
    8.1401  -29.2367  -10.7198 H   0  0  0  0  0  0  0  0  0  0  0  0
   10.6179  -21.7892  -10.0730 H   0  0  0  0  0  0  0  0  0  0  0  0
   11.3997  -23.3472  -10.3144 H   0  0  0  0  0  0  0  0  0  0  0  0
    9.4168  -23.1134  -11.8318 H   0  0  0  0  0  0  0  0  0  0  0  0
    8.3623  -22.8468  -10.4427 H   0  0  0  0  0  0  0  0  0  0  0  0
   11.5128  -27.7871  -12.3489 H   0  0  0  0  0  0  0  0  0  0  0  0
   12.3758  -26.9687  -11.0507 H   0  0  0  0  0  0  0  0  0  0  0  0
   13.8981  -27.9169  -12.7349 H   0  0  0  0  0  0  0  0  0  0  0  0
    5.6198  -25.5334   -7.8093 H   0  0  0  0  0  0  0  0  0  0  0  0
  1  2  2  0  0  0  0
  1  4  1  0  0  0  0
  1 15  1  0  0  0  0
  2 14  1  0  0  0  0
  2 17  1  0  0  0  0
  3 14  2  0  0  0  0
  3 15  1  0  0  0  0
  3 20  1  0  0  0  0
  4 16  1  0  0  0  0
  4 18  2  0  0  0  0
  5 16  1  0  0  0  0
  5 17  1  0  0  0  0
  5 19  2  0  0  0  0
  6 10  1  0  0  0  0
  7 13  1  0  0  0  0
  8 13  1  0  0  0  0
  9 17  1  0  0  0  0
 10 11  1  0  0  0  0
 11 15  1  0  0  0  0
 12 13  1  0  0  0  0
 12 20  1  0  0  0  0
  6 21  1  0  0  0  0
  6 22  1  0  0  0  0
  6 23  1  0  0  0  0
  7 24  1  0  0  0  0
  7 25  1  0  0  0  0
  7 26  1  0  0  0  0
  8 27  1  0  0  0  0
  8 28  1  0  0  0  0
  8 29  1  0  0  0  0
  9 30  1  0  0  0  0
  9 31  1  0  0  0  0
  9 32  1  0  0  0  0
 10 33  1  0  0  0  0
 10 34  1  0  0  0  0
 11 35  1  0  0  0  0
 11 36  1  0  0  0  0
 12 37  1  0  0  0  0
 12 38  1  0  0  0  0
 13 39  1  0  0  0  0
 16 40  1  0  0  0  0
M  END
> <Hybrid2>
-4.994823932647705

> <Hybrid2>
-4.994824

$$$$
C00093048
  -OEChem-02152218513D

 40 41  0     0  0  0  0  0  0999 V2000
    8.0691  -26.2868   -9.5035 C   0  0  0  0  0  0  0  0  0  0  0  0
    8.1314  -27.6402   -9.7165 C   0  0  0  0  0  0  0  0  0  0  0  0
    9.8086  -26.8322  -10.7314 C   0  0  0  0  0  0  0  0  0  0  0  0
    7.0481  -25.6434   -8.7423 C   0  0  0  0  0  0  0  0  0  0  0  0
    6.1183  -27.9823   -8.4198 C   0  0  0  0  0  0  0  0  0  0  0  0
   11.0330  -22.5661   -9.3534 C   0  0  0  0  0  0  0  0  0  0  0  0
   13.9150  -28.2620  -12.6996 C   0  0  0  0  0  0  0  0  0  0  0  0
   14.5628  -26.3253  -11.2306 C   0  0  0  0  0  0  0  0  0  0  0  0
    7.2787  -29.9423   -9.4405 C   0  0  0  0  0  0  0  0  0  0  0  0
   10.6695  -24.0400   -9.2801 C   0  0  0  0  0  0  0  0  0  0  0  0
    9.5169  -24.3762  -10.2237 C   0  0  0  0  0  0  0  0  0  0  0  0
   12.4295  -27.6348  -10.7177 C   0  0  0  0  0  0  0  0  0  0  0  0
   13.8588  -27.6828  -11.2844 C   0  0  0  0  0  0  0  0  0  0  0  0
    9.2140  -27.9810  -10.4812 N   0  0  0  0  0  0  0  0  0  0  0  0
    9.1504  -25.7738  -10.1586 N   0  0  0  0  0  0  0  0  0  0  0  0
    6.1249  -26.5754   -8.2458 N   0  0  0  0  0  0  0  0  0  0  0  0
    7.1795  -28.5109   -9.1931 N   0  0  0  0  0  0  0  0  0  0  0  0
    6.9670  -24.4363   -8.5361 O   0  0  0  0  0  0  0  0  0  0  0  0
    5.2273  -28.6705   -7.9141 O   0  0  0  0  0  0  0  0  0  0  0  0
   11.2502  -26.6332  -11.6676 S   0  0  0  0  0  0  0  0  0  0  0  0
   10.1718  -21.9371   -9.1065 H   0  0  0  0  0  0  0  0  0  0  0  0
   11.3644  -22.3070  -10.3639 H   0  0  0  0  0  0  0  0  0  0  0  0
   11.8441  -22.3272   -8.6581 H   0  0  0  0  0  0  0  0  0  0  0  0
   13.3700  -27.6429  -13.4192 H   0  0  0  0  0  0  0  0  0  0  0  0
   14.9528  -28.3303  -13.0439 H   0  0  0  0  0  0  0  0  0  0  0  0
   13.4902  -29.2710  -12.7244 H   0  0  0  0  0  0  0  0  0  0  0  0
   14.0610  -25.5770  -11.8522 H   0  0  0  0  0  0  0  0  0  0  0  0
   15.5936  -26.4146  -11.5908 H   0  0  0  0  0  0  0  0  0  0  0  0
   14.6017  -25.9475  -10.2035 H   0  0  0  0  0  0  0  0  0  0  0  0
    7.8751  -30.4121   -8.6446 H   0  0  0  0  0  0  0  0  0  0  0  0
    6.2709  -30.3830   -9.4519 H   0  0  0  0  0  0  0  0  0  0  0  0
    7.7647  -30.1135  -10.4123 H   0  0  0  0  0  0  0  0  0  0  0  0
   11.5505  -24.6422   -9.5320 H   0  0  0  0  0  0  0  0  0  0  0  0
   10.3982  -24.2945   -8.2484 H   0  0  0  0  0  0  0  0  0  0  0  0
    9.7810  -24.1493  -11.2635 H   0  0  0  0  0  0  0  0  0  0  0  0
    8.6249  -23.7864   -9.9811 H   0  0  0  0  0  0  0  0  0  0  0  0
   12.0246  -28.6509  -10.6559 H   0  0  0  0  0  0  0  0  0  0  0  0
   12.4523  -27.2376   -9.6969 H   0  0  0  0  0  0  0  0  0  0  0  0
   14.4272  -28.3641  -10.6369 H   0  0  0  0  0  0  0  0  0  0  0  0
    5.3639  -26.1935   -7.6907 H   0  0  0  0  0  0  0  0  0  0  0  0
  1  2  2  0  0  0  0
  1  4  1  0  0  0  0
  1 15  1  0  0  0  0
  2 14  1  0  0  0  0
  2 17  1  0  0  0  0
  3 14  2  0  0  0  0
  3 15  1  0  0  0  0
  3 20  1  0  0  0  0
  4 16  1  0  0  0  0
  4 18  2  0  0  0  0
  5 16  1  0  0  0  0
  5 17  1  0  0  0  0
  5 19  2  0  0  0  0
  6 10  1  0  0  0  0
  7 13  1  0  0  0  0
  8 13  1  0  0  0  0
  9 17  1  0  0  0  0
 10 11  1  0  0  0  0
 11 15  1  0  0  0  0
 12 13  1  0  0  0  0
 12 20  1  0  0  0  0
  6 21  1  0  0  0  0
  6 22  1  0  0  0  0
  6 23  1  0  0  0  0
  7 24  1  0  0  0  0
  7 25  1  0  0  0  0
  7 26  1  0  0  0  0
  8 27  1  0  0  0  0
  8 28  1  0  0  0  0
  8 29  1  0  0  0  0
  9 30  1  0  0  0  0
  9 31  1  0  0  0  0
  9 32  1  0  0  0  0
 10 33  1  0  0  0  0
 10 34  1  0  0  0  0
 11 35  1  0  0  0  0
 11 36  1  0  0  0  0
 12 37  1  0  0  0  0
 12 38  1  0  0  0  0
 13 39  1  0  0  0  0
 16 40  1  0  0  0  0
M  END
> <Hybrid2>
-4.994823932647705

> <Hybrid2>
-4.931286

$$$$
