@<TRIPOS>MOLECULE
*****
   21    22     0     0     0
SMALL
NO_CHARGES

@<TRIPOS>ATOM
      1 C1         -0.4966   -2.0341    0.4940 C.ar      1 <0>         0.0000
      2 C2         -0.0479   -3.3542    0.5448 C.ar      1 <0>         0.0000
      3 C3          3.4207   -2.9899   -0.7267 C.ar      1 <0>         0.0000
      4 C4          3.8693   -4.3100   -0.6758 C.ar      1 <0>         0.0000
      5 C5          0.3500   -1.0275    0.0392 C.ar      1 <0>         0.0000
      6 C6          1.7243   -5.0072    0.1848 C.ar      1 <0>         0.0000
      7 C7          1.2560   -3.6839    0.1403 C.ar      1 <0>         0.0000
      8 C8          2.1168   -2.6602   -0.3222 C.ar      1 <0>         0.0000
      9 C9          3.0228   -5.3167   -0.2210 C.ar      1 <0>         0.0000
     10 C10         1.6484   -1.3369   -0.3665 C.ar      1 <0>         0.0000
     11 C11         3.5042   -6.7273   -0.1668 C.3       1 <0>         0.0000
     12 Cl1         2.6181   -0.0066   -0.9155 Cl        1 <0>         0.0000
     13 H1         -1.5075   -1.7929    0.8097 H         1 <0>         0.0000
     14 H2         -0.7273   -4.1251    0.9026 H         1 <0>         0.0000
     15 H3          4.1207   -2.2422   -1.0895 H         1 <0>         0.0000
     16 H4          4.8822   -4.5432   -0.9933 H         1 <0>         0.0000
     17 H5         -0.0191   -0.0052    0.0084 H         1 <0>         0.0000
     18 H6          1.0718   -5.8045    0.5367 H         1 <0>         0.0000
     19 H7          3.9631   -6.9370    0.8071 H         1 <0>         0.0000
     20 H8          2.6803   -7.4357   -0.3230 H         1 <0>         0.0000
     21 H9          4.2463   -6.9253   -0.9512 H         1 <0>         0.0000
@<TRIPOS>BOND
     1    1    2 ar
     2    1    5 ar
     3    2    7 ar
     4    3    4 ar
     5    3    8 ar
     6    4    9 ar
     7    5   10 ar
     8    6    7 ar
     9    6    9 ar
    10    7    8 ar
    11    8   10 ar
    12    9   11 1
    13   10   12 1
    14    1   13 1
    15    2   14 1
    16    3   15 1
    17    4   16 1
    18    5   17 1
    19    6   18 1
    20   11   19 1
    21   11   20 1
    22   11   21 1
