@<TRIPOS>MOLECULE
*****
   40    44     0     0     0
SMALL
NO_CHARGES

@<TRIPOS>ATOM
      1 C1         -0.4937   -0.6652   -0.7033 C.ar      1 <0>         0.0000
      2 C2         -0.7967   -0.1996   -1.9988 C.ar      1 <0>         0.0000
      3 C3         -0.7946   -1.9790   -0.3401 C.ar      1 <0>         0.0000
      4 C4         -1.4233   -2.7664   -1.2875 C.ar      1 <0>         0.0000
      5 C5         -1.6446   -2.3426   -2.5788 C.ar      1 <0>         0.0000
      6 C6         -1.3646   -1.0483   -2.9577 C.ar      1 <0>         0.0000
      7 C7          0.5075   -5.0406   -0.8643 C.2       1 <0>         0.0000
      8 C8          0.6163   -5.2127   -2.1898 C.2       1 <0>         0.0000
      9 C9         -0.3666   -2.6058    0.9595 C.3       1 <0>         0.0000
     10 C10        -3.2477   -4.2463   -0.4718 C.3       1 <0>         0.0000
     11 C11        -3.2556   -3.7298    0.9766 C.3       1 <0>         0.0000
     12 C12        -0.8372   -4.8920   -0.2004 C.3       1 <0>         0.0000
     13 C13        -0.5786   -5.3058   -3.0978 C.3       1 <0>         0.0000
     14 C14        -0.8153   -4.0962    1.1450 C.3       1 <0>         0.0000
     15 C15        -1.8604   -4.5782   -2.6123 C.3       1 <0>         0.0000
     16 C16        -1.8486   -4.1872   -1.1165 C.3       1 <0>         0.0000
     17 C17        -2.2081   -3.8150    3.1532 C.3       1 <0>         0.0000
     18 N1         -2.1487   -4.2742    1.7694 N.3       1 <0>         0.0000
     19 O1         -2.0905   -3.3515   -3.3899 O.3       1 <0>         0.0000
     20 O2         -1.5947   -0.6121   -4.2206 O.3       1 <0>         0.0000
     21 O3         -0.2068   -4.8636   -4.4003 O.3       1 <0>         0.0000
     22 H1         -0.0002   -0.0001    0.0002 H         1 <0>         0.0000
     23 H2         -0.5479    0.8259   -2.2621 H         1 <0>         0.0000
     24 H3          1.4007   -5.0529   -0.2475 H         1 <0>         0.0000
     25 H4          1.6025   -5.3643   -2.6195 H         1 <0>         0.0000
     26 H5          0.7317   -2.5912    0.9762 H         1 <0>         0.0000
     27 H6         -0.6942   -1.9797    1.7952 H         1 <0>         0.0000
     28 H7         -3.5923   -5.2893   -0.4742 H         1 <0>         0.0000
     29 H8         -3.9810   -3.6745   -1.0551 H         1 <0>         0.0000
     30 H9         -3.2387   -2.6329    0.9805 H         1 <0>         0.0000
     31 H10        -4.2110   -4.0229    1.4297 H         1 <0>         0.0000
     32 H11        -1.1798   -5.9160    0.0123 H         1 <0>         0.0000
     33 H12        -0.8056   -6.3762   -3.1858 H         1 <0>         0.0000
     34 H13        -0.0839   -4.5795    1.8076 H         1 <0>         0.0000
     35 H14        -2.7143   -5.2318   -2.8324 H         1 <0>         0.0000
     36 H15        -1.3746   -4.2329    3.7238 H         1 <0>         0.0000
     37 H16        -3.1461   -4.1324    3.6168 H         1 <0>         0.0000
     38 H17        -2.1494   -2.7240    3.1923 H         1 <0>         0.0000
     39 H18        -1.3151    0.3140   -4.3184 H         1 <0>         0.0000
     40 H19         0.5055   -5.4503   -4.6987 H         1 <0>         0.0000
@<TRIPOS>BOND
     1    1    2 ar
     2    1    3 ar
     3    2    6 ar
     4    3    4 ar
     5    3    9 1
     6    4    5 ar
     7    4   16 1
     8    5    6 ar
     9    5   19 1
    10    6   20 1
    11    7    8 2
    12    7   12 1
    13    8   13 1
    14    9   14 1
    15   10   11 1
    16   10   16 1
    17   11   18 1
    18   12   14 1
    19   12   16 1
    20   13   15 1
    21   13   21 1
    22   14   18 1
    23   15   16 1
    24   15   19 1
    25   17   18 1
    26    1   22 1
    27    2   23 1
    28    7   24 1
    29    8   25 1
    30    9   26 1
    31    9   27 1
    32   10   28 1
    33   10   29 1
    34   11   30 1
    35   11   31 1
    36   12   32 1
    37   13   33 1
    38   14   34 1
    39   15   35 1
    40   17   36 1
    41   17   37 1
    42   17   38 1
    43   20   39 1
    44   21   40 1
