@<TRIPOS>MOLECULE
KBT_561_3LAN
   49    50     0     0     0
SMALL
USER_CHARGES

@<TRIPOS>ATOM
      1 C1          5.6690    8.1410   16.9450 C.3       1 <0>        -0.0652
      2 C2         10.6220   16.2500   19.8160 C.3       1 <0>        -0.0397
      3 C3         12.7560   14.0890   16.0320 C.3       1 <0>        -0.0584
      4 C4         13.0140   11.6640   15.1560 C.3       1 <0>        -0.0584
      5 C5         10.3330   14.1290   21.2550 C.ar      1 <0>        -0.0414
      6 C6         10.1410   13.9510   18.8060 C.ar      1 <0>        -0.0479
      7 C7          9.8790   11.9150   20.1960 C.ar      1 <0>        -0.0335
      8 C8          6.0340    9.5920   17.3160 C.3       1 <0>        -0.0545
      9 C9          6.6540   10.2910   16.0940 C.3       1 <0>        -0.0370
     10 C10         7.0190   11.7460   16.4800 C.3       1 <0>         0.0214
     11 C11        10.0320   12.1070   22.6320 C.1       1 <0>         0.0992
     12 C12        10.3650   14.7480   19.9670 C.ar      1 <0>        -0.0486
     13 C13        10.0890   12.7150   21.3590 C.ar      1 <0>         0.0527
     14 C14         9.9010   12.5270   18.9080 C.ar      1 <0>         0.0250
     15 C15        10.6870   12.6420   15.5240 C.2       1 <0>         0.0424
     16 C16         9.5730   12.1940   16.2580 C.2       1 <0>         0.0935
     17 C17        10.3390   13.1470   14.1140 C.2       1 <0>         0.2496
     18 C18         8.0270   12.6800   14.4650 C.2       1 <0>         0.3131
     19 C19        12.1430   12.6460   16.0310 C.3       1 <0>        -0.0147
     20 C20         9.6430   11.6580   17.6840 C.2       1 <0>         0.2078
     21 N1          9.9510   11.6150   23.6670 N.1       1 <0>        -0.1909
     22 N2          9.0530   13.1270   13.7110 N.am      1 <0>        -0.2359
     23 N3          8.2520   12.2250   15.7100 N.am      1 <0>        -0.2513
     24 O1         11.1820   13.5750   13.3420 O.2       1 <0>        -0.2700
     25 O2          6.9020   12.7200   13.9650 O.2       1 <0>        -0.2518
     26 O3          9.4480   10.4590   17.8200 O.2       1 <0>        -0.2853
     27 H1          5.2254    7.6394   17.8177 H         1 <0>         0.0230
     28 H2          4.9444    8.1455   16.1174 H         1 <0>         0.0230
     29 H3          6.5767    7.6026   16.6349 H         1 <0>         0.0230
     30 H4         11.7024   16.4291   19.7130 H         1 <0>         0.0278
     31 H5         10.1017   16.6227   18.9213 H         1 <0>         0.0278
     32 H6         10.2463   16.7773   20.7052 H         1 <0>         0.0278
     33 H7         12.1314   14.7528   16.6478 H         1 <0>         0.0235
     34 H8         13.7741   14.0544   16.4472 H         1 <0>         0.0235
     35 H9         12.7929   14.4722   15.0016 H         1 <0>         0.0235
     36 H10        12.5635   10.6606   15.1717 H         1 <0>         0.0235
     37 H11        13.0524   12.0323   14.1202 H         1 <0>         0.0235
     38 H12        14.0336   11.6145   15.5658 H         1 <0>         0.0235
     39 H13        10.4911   14.7196   22.1453 H         1 <0>         0.0633
     40 H14        10.1506   14.4184   17.8324 H         1 <0>         0.0627
     41 H15         9.7046   10.8534   20.2906 H         1 <0>         0.0637
     42 H16         5.1267   10.1310   17.6262 H         1 <0>         0.0263
     43 H17         6.7586    9.5882   18.1436 H         1 <0>         0.0263
     44 H18         7.5606    9.7528   15.7802 H         1 <0>         0.0280
     45 H19         5.9307   10.2983   15.2652 H         1 <0>         0.0280
     46 H20         6.1701   12.4031   16.2400 H         1 <0>         0.0469
     47 H21         7.2328   11.7869   17.5583 H         1 <0>         0.0469
     48 H22        12.1445   12.2971   17.0742 H         1 <0>         0.0346
     49 H23         8.8456   13.4656   12.7932 H         1 <0>         0.1594
@<TRIPOS>BOND
     1    1    8 1
     2    2   12 1
     3    3   19 1
     4    4   19 1
     5    5   12 ar
     6    5   13 ar
     7    6   12 ar
     8    6   14 ar
     9    7   13 ar
    10    7   14 ar
    11    8    9 1
    12    9   10 1
    13   10   23 1
    14   11   13 1
    15   11   21 3
    16   14   20 1
    17   15   16 2
    18   15   17 1
    19   15   19 1
    20   16   20 1
    21   16   23 1
    22   17   22 am
    23   17   24 2
    24   18   22 am
    25   18   23 am
    26   18   25 2
    27   20   26 2
    28    1   27 1
    29    1   28 1
    30    1   29 1
    31    2   30 1
    32    2   31 1
    33    2   32 1
    34    3   33 1
    35    3   34 1
    36    3   35 1
    37    4   36 1
    38    4   37 1
    39    4   38 1
    40    5   39 1
    41    6   40 1
    42    7   41 1
    43    8   42 1
    44    8   43 1
    45    9   44 1
    46    9   45 1
    47   10   46 1
    48   10   47 1
    49   19   48 1
    50   22   49 1
